@<TRIPOS>MOLECULE
tmp/2rg0D01.pdb
 178 172 0 0 0
SMALL
GASTEIGER

@<TRIPOS>ATOM
      1  N         -8.9110   -5.5850   28.8100 N.3    36  ASN36      -0.1225
      2  CA        -8.2620   -6.9020   28.7640 C.3    36  ASN36       0.1785
      3  C         -7.3080   -7.0770   29.9440 C.2    36  ASN36       0.2597
      4  O         -7.1390   -8.1980   30.4260 O.2    36  ASN36      -0.2718
      5  CB        -7.5270   -7.1400   27.4460 C.3    36  ASN36       0.1169
      6  CG        -8.3890   -7.9450   26.4890 C.2    36  ASN36       0.2627
      7  OD1       -9.3640   -7.4120   25.9560 O.2    36  ASN36      -0.2716
      8  ND2       -8.0520   -9.2090   26.2670 N.am   36  ASN36      -0.0877
      9  N         -6.7160   -5.9790   30.3960 N.am   37  TRP37      -0.1976
     10  CA        -5.9730   -5.9410   31.6500 C.3    37  TRP37       0.1640
     11  C         -6.9480   -5.5230   32.7640 C.2    37  TRP37       0.2290
     12  O         -7.2040   -4.3270   32.9380 O.2    37  TRP37      -0.2864
     13  CB        -4.8120   -4.9850   31.6320 C.3    37  TRP37       0.0576
     14  CG        -3.8760   -4.8480   30.4860 C.ar   37  TRP37       0.0006
     15  CD1       -2.5180   -5.0480   30.5270 C.ar   37  TRP37       0.0946
     16  CD2       -4.1670   -4.4780   29.1310 C.ar   37  TRP37       0.0152
     17  NE1       -1.9520   -4.8340   29.2920 N.ar   37  TRP37      -0.2442
     18  CE2       -2.9470   -4.4820   28.4200 C.ar   37  TRP37       0.0810
     19  CE3       -5.3470   -4.1470   28.4560 C.ar   37  TRP37       0.0012
     20  CZ2       -2.8730   -4.1670   27.0640 C.ar   37  TRP37       0.0191
     21  CZ3       -5.2650   -3.8360   27.1130 C.ar   37  TRP37       0.0001
     22  CH2       -4.0430   -3.8470   26.4330 C.ar   37  TRP37       0.0015
     23  N          3.4670   -7.0440   30.2930 N.3   103  VAL103     -0.1245
     24  CA         4.2400   -6.4470   29.2070 C.3   103  VAL103      0.1561
     25  C          3.3740   -5.4420   28.4460 C.2   103  VAL103      0.2260
     26  O          2.1830   -5.6880   28.2460 O.2   103  VAL103     -0.2867
     27  CB         4.8110   -7.4790   28.2220 C.3   103  VAL103      0.0252
     28  CG1        6.2680   -7.1380   27.9190 C.3   103  VAL103      0.0019
     29  CG2        4.7240   -8.9070   28.7390 C.3   103  VAL103      0.0019
     30  N          1.0660   -2.4110   27.1480 N.3   105  SER105     -0.1202
     31  CA        -0.2870   -2.0620   27.5530 C.3   105  SER105      0.2020
     32  C         -0.9640   -1.1800   26.5020 C.2   105  SER105      0.2618
     33  O         -0.3240   -0.8150   25.5160 O.2   105  SER105     -0.2717
     34  CB        -0.2990   -1.3400   28.9030 C.3   105  SER105      0.2103
     35  OG         0.3890   -0.1020   28.8110 O.3   105  SER105     -0.2182
     36  N         -2.2270   -0.8610   26.7430 N.am  106  ARG106     -0.1979
     37  CA        -3.0640   -0.0210   25.8990 C.3   106  ARG106      0.1597
     38  C         -3.9450    0.9030   26.7350 C.2   106  ARG106      0.2287
     39  O         -4.7910    0.4110   27.4820 O.2   106  ARG106     -0.2864
     40  CB        -3.9580   -0.8770   25.0020 C.3   106  ARG106      0.0334
     41  CG        -4.5600   -0.1850   23.7870 C.3   106  ARG106      0.0492
     42  CD        -4.9710   -1.2370   22.7540 C.3   106  ARG106      0.2205
     43  NE        -5.9530   -2.1610   23.3090 N.pl3 106  ARG106     -0.0865
     44  CZ        -5.9400   -3.4760   23.1700 C.cat 106  ARG106      0.5346
     45  NH1       -4.9800   -4.0760   22.4820 N.pl3 106  ARG106      0.1354
     46  NH2       -6.8970   -4.2050   23.7260 N.pl3 106  ARG106      0.1354
     47  N         -2.9210    5.5440   18.1190 N.3   144  TYR144     -0.1241
     48  CA        -3.8100    5.5140   16.9550 C.3   144  TYR144      0.1605
     49  C         -5.2120    6.0370   17.2390 C.2   144  TYR144      0.2264
     50  O         -5.5780    6.3400   18.3740 O.2   144  TYR144     -0.2867
     51  CB        -3.8860    4.0930   16.3800 C.3   144  TYR144      0.0534
     52  CG        -4.1180    2.9360   17.3160 C.ar  144  TYR144     -0.0201
     53  CD1       -3.1980    2.5680   18.2860 C.ar  144  TYR144     -0.0009
     54  CD2       -5.2770    2.1750   17.2380 C.ar  144  TYR144     -0.0009
     55  CE1       -3.4090    1.5070   19.1440 C.ar  144  TYR144      0.0417
     56  CE2       -5.5160    1.1120   18.0780 C.ar  144  TYR144      0.0417
     57  CZ        -4.5770    0.7800   19.0320 C.ar  144  TYR144      0.1957
     58  OH        -4.7840   -0.2740   19.8860 O.3   144  TYR144     -0.2866
     59  N        -13.3760   -1.2990   23.1470 N.3   170  TYR170     -0.1241
     60  CA       -12.4800   -0.7020   22.1340 C.3   170  TYR170      0.1605
     61  C        -12.6690   -1.4830   20.8470 C.2   170  TYR170      0.2264
     62  O        -13.5020   -2.4010   20.8240 O.2   170  TYR170     -0.2867
     63  CB       -11.0810   -0.6360   22.7040 C.3   170  TYR170      0.0534
     64  CG        -9.8720   -0.8890   21.8540 C.ar  170  TYR170     -0.0201
     65  CD1       -9.2520    0.1060   21.1100 C.ar  170  TYR170     -0.0009
     66  CD2       -9.3270   -2.1680   21.7940 C.ar  170  TYR170     -0.0009
     67  CE1       -8.1350   -0.1600   20.3350 C.ar  170  TYR170      0.0417
     68  CE2       -8.2170   -2.4400   21.0250 C.ar  170  TYR170      0.0417
     69  CZ        -7.6190   -1.4350   20.2960 C.ar  170  TYR170      0.1957
     70  OH        -6.5120   -1.7440   19.5380 O.3   170  TYR170     -0.2866
     71  N        -11.1690   -2.3810   16.3650 N.3   172  ASP172     -0.1239
     72  CA       -10.2340   -2.0030   15.3000 C.3   172  ASP172      0.1674
     73  C        -10.4760   -2.7730   14.0020 C.2   172  ASP172      0.2266
     74  O        -11.1330   -3.8050   14.0010 O.2   172  ASP172     -0.2867
     75  CB        -8.8080   -2.1440   15.8000 C.3   172  ASP172      0.1410
     76  CG        -8.1520   -3.4910   15.8320 C.2   172  ASP172      0.3668
     77  OD1       -8.6540   -4.4790   15.2660 O.co2 172  ASP172     -0.2456
     78  OD2       -7.0610   -3.5710   16.4500 O.co2 172  ASP172     -0.2456
     79  N        -10.6900   -7.4110   16.9630 N.3   176  ALA176     -0.1245
     80  CA       -10.0460   -7.8400   18.1950 C.3   176  ALA176      0.1562
     81  C        -10.8270   -8.9120   18.9440 C.2   176  ALA176      0.2260
     82  O        -11.6450   -8.5970   19.8100 O.2   176  ALA176     -0.2867
     83  CB        -9.8410   -6.6330   19.1060 C.3   176  ALA176      0.0290
     84  N         -9.2990  -11.1930   20.7480 N.3   178  ASP178     -0.1225
     85  CA        -8.4170  -11.5080   21.8610 C.3   178  ASP178      0.1805
     86  C         -9.0010  -10.9880   23.1800 C.2   178  ASP178      0.2597
     87  O         -8.4300  -11.1590   24.2540 O.2   178  ASP178     -0.2718
     88  CB        -7.0300  -10.8920   21.6800 C.3   178  ASP178      0.1424
     89  CG        -7.0230   -9.3860   21.8540 C.2   178  ASP178      0.3668
     90  OD1       -7.6720   -8.7050   21.0430 O.co2 178  ASP178     -0.2456
     91  OD2       -6.3830   -8.8680   22.7920 O.co2 178  ASP178     -0.2456
     92  N        -10.1480  -10.3570   23.0240 N.am  179  LEU179     -0.1979
     93  CA       -10.9260   -9.6670   24.0290 C.3   179  LEU179      0.1596
     94  C        -11.8510  -10.6270   24.7530 C.2   179  LEU179      0.2287
     95  O        -12.7430  -11.2430   24.1730 O.2   179  LEU179     -0.2864
     96  CB       -11.7310   -8.5430   23.3670 C.3   179  LEU179      0.0297
     97  CG       -10.9810   -7.6460   22.3870 C.3   179  LEU179      0.0022
     98  CD1      -11.6570   -6.2840   22.2900 C.3   179  LEU179      0.0001
     99  CD2       -9.5260   -7.4460   22.7820 C.3   179  LEU179      0.0001
    100  N          1.6120  -16.3140   23.4690 N.3   197  ASP197     -0.1225
    101  CA         0.8140  -15.3240   24.1750 C.3   197  ASP197      0.1790
    102  C          0.6360  -15.6890   25.6450 C.2   197  ASP197      0.2439
    103  O          0.2810  -16.8150   25.9830 O.2   197  ASP197     -0.2733
    104  CB        -0.5470  -15.1880   23.4930 C.3   197  ASP197      0.1423
    105  CG        -1.4550  -14.0950   24.0070 C.2   197  ASP197      0.3668
    106  OD1       -2.0870  -14.2830   25.0690 O.co2 197  ASP197     -0.2456
    107  OD2       -1.5610  -13.0390   23.3390 O.co2 197  ASP197     -0.2456
    108  N          0.8930  -14.7110   26.5020 N.am  198  PRO198     -0.2729
    109  CA         0.6700  -14.8280   27.9410 C.3   198  PRO198      0.1401
    110  C         -0.6390  -15.5220   28.2880 C.2   198  PRO198      0.2269
    111  O         -0.7020  -16.7550   28.2650 O.2   198  PRO198     -0.2865
    112  CB         0.6060  -13.3560   28.3730 C.3   198  PRO198      0.0296
    113  CG         1.5670  -12.6820   27.4500 C.3   198  PRO198      0.0237
    114  CD         1.4400  -13.3910   26.1310 C.3   198  PRO198      0.0939
    115  N         -3.7720  -14.7420   26.8570 N.3   200  ALA200     -0.1245
    116  CA        -4.8320  -14.4200   25.9090 C.3   200  ALA200      0.1562
    117  C         -4.9730  -15.4960   24.8370 C.2   200  ALA200      0.2260
    118  O         -4.0110  -16.1820   24.5010 O.2   200  ALA200     -0.2867
    119  CB        -4.5960  -13.0630   25.2620 C.3   200  ALA200      0.0290
    120  N         -9.8980    1.9810   11.3030 N.3   211  GLU211     -0.1245
    121  CA        -8.6800    2.2310   12.0620 C.3   211  GLU211      0.1567
    122  C         -7.7020    3.1200   11.3080 C.2   211  GLU211      0.2260
    123  O         -7.2150    2.7420   10.2430 O.2   211  GLU211     -0.2867
    124  CB        -8.0250    0.8860   12.3910 C.3   211  GLU211      0.0388
    125  CG        -7.2840    0.8060   13.7140 C.3   211  GLU211      0.1160
    126  CD        -6.2580   -0.3150   13.7320 C.2   211  GLU211      0.3649
    127  OE1       -6.5350   -1.4090   13.1950 O.co2 211  GLU211     -0.2457
    128  OE2       -5.1630   -0.0990   14.2880 O.co2 211  GLU211     -0.2457
    129  N         -6.3030  -12.2450   14.0340 N.3   246  TYR246     -0.1241
    130  CA        -6.7940  -13.2990   14.9140 C.3   246  TYR246      0.1605
    131  C         -7.6800  -14.2700   14.1430 C.2   246  TYR246      0.2264
    132  O         -8.0820  -15.3040   14.6750 O.2   246  TYR246     -0.2867
    133  CB        -7.5780  -12.7260   16.0990 C.3   246  TYR246      0.0534
    134  CG        -6.7250  -11.9160   17.0460 C.ar  246  TYR246     -0.0201
    135  CD1       -6.1080  -12.5210   18.1310 C.ar  246  TYR246     -0.0009
    136  CD2       -6.5360  -10.5530   16.8550 C.ar  246  TYR246     -0.0009
    137  CE1       -5.3260  -11.7900   19.0030 C.ar  246  TYR246      0.0417
    138  CE2       -5.7520   -9.8220   17.7270 C.ar  246  TYR246      0.0417
    139  CZ        -5.1500  -10.4410   18.8000 C.ar  246  TYR246      0.1957
    140  OH        -4.3670   -9.7170   19.6700 O.3   246  TYR246     -0.2866
    141  N         -0.3120    2.9000   23.1650 N.3   363  SER363     -0.1217
    142  CA         0.1340    1.5760   23.5750 C.3   363  SER363      0.1889
    143  C          1.5290    1.1770   23.0910 C.2   363  SER363      0.2288
    144  O          2.0310    1.6710   22.0810 O.2   363  SER363     -0.2866
    145  CB        -0.8730    0.5360   23.0560 C.3   363  SER363      0.2089
    146  OG        -1.2680    0.8600   21.7310 O.3   363  SER363     -0.2183
    147  N          3.8140   -2.6510   22.8500 N.3   365  TRP365     -0.1227
    148  CA         3.5070   -4.0710   22.7080 C.3   365  TRP365      0.1737
    149  C          4.2980   -4.7710   21.6020 C.2   365  TRP365      0.2595
    150  O          4.8460   -4.1410   20.6960 O.2   365  TRP365     -0.2718
    151  CB         1.9980   -4.2180   22.4440 C.3   365  TRP365      0.0564
    152  CG         1.5230   -3.4340   21.2560 C.ar  365  TRP365      0.0003
    153  CD1        1.1050   -2.1340   21.2420 C.ar  365  TRP365      0.0946
    154  CD2        1.4120   -3.8900   19.9020 C.ar  365  TRP365      0.0152
    155  NE1        0.7470   -1.7500   19.9860 N.ar  365  TRP365     -0.2442
    156  CE2        0.9240   -2.8140   19.1400 C.ar  365  TRP365      0.0810
    157  CE3        1.6740   -5.0990   19.2550 C.ar  365  TRP365      0.0012
    158  CZ2        0.6940   -2.9080   17.7700 C.ar  365  TRP365      0.0191
    159  CZ3        1.4480   -5.2040   17.8940 C.ar  365  TRP365      0.0001
    160  CH2        0.9610   -4.1090   17.1720 C.ar  365  TRP365      0.0015
    161  N          4.3390   -6.0940   21.6870 N.am  366  ASP366     -0.1974
    162  CA         5.0120   -7.0000   20.7750 C.3   366  ASP366      0.1709
    163  C          4.0420   -7.9420   20.0600 C.2   366  ASP366      0.2293
    164  O          2.8700   -8.0720   20.4220 O.2   366  ASP366     -0.2864
    165  CB         6.0700   -7.8130   21.5270 C.3   366  ASP366      0.1436
    166  CG         5.4950   -8.8650   22.4510 C.2   366  ASP366      0.3671
    167  OD1        4.9200   -9.8640   21.9670 O.co2 366  ASP366     -0.2456
    168  OD2        5.6240   -8.7020   23.6830 O.co2 366  ASP366     -0.2456
    169  N          3.1430  -11.6400   18.7520 N.3   368  HIS368     -0.1241
    170  CA         3.3180  -13.0900   18.8100 C.3   368  HIS368      0.1621
    171  C          2.9640  -13.7290   17.4720 C.2   368  HIS368      0.2264
    172  O          3.1950  -14.9030   17.1820 O.2   368  HIS368     -0.2867
    173  CB         2.4580  -13.6800   19.9280 C.3   368  HIS368      0.0745
    174  CG         2.9030  -13.3190   21.3080 C.ar  368  HIS368      0.0817
    175  ND1        2.9850  -12.0220   21.7590 N.ar  368  HIS368     -0.2268
    176  CD2        3.2900  -14.0930   22.3500 C.ar  368  HIS368      0.1154
    177  CE1        3.4020  -12.0150   23.0130 C.ar  368  HIS368      0.1986
    178  NE2        3.5970  -13.2640   23.4020 N.ar  368  HIS368     -0.2212
@<TRIPOS>BOND
     1   123   122    2
     2   120   121    1
     3   122   121    1
     4   121   124    1
     5   124   125    1
     6   127   126   ar
     7   125   126    1
     8   126   128   ar
     9    74    73    2
    10    73    72    1
    11   129   130    1
    12   131   132    2
    13   131   130    1
    14   130   133    1
    15    77    76   ar
    16    72    75    1
    17    72    71    1
    18    75    76    1
    19    76    78   ar
    20   133   134    1
    21    51    48    1
    22    51    52    1
    23   136   134   ar
    24   136   138   ar
    25    48    49    1
    26    48    47    1
    27    79    80    1
    28   134   135   ar
    29   160   158   ar
    30   160   159   ar
    31   172   171    2
    32    54    52   ar
    33    54    56   ar
    34    49    50    2
    35    52    53   ar
    36   171   170    1
    37   138   139   ar
    38   158   156   ar
    39   159   157   ar
    40    56    57   ar
    41   135   137   ar
    42    80    81    1
    43    80    83    1
    44    53    55   ar
    45   169   170    1
    46   139   137   ar
    47   139   140    1
    48   170   173    1
    49    81    82    2
    50    57    55   ar
    51    57    58    1
    52   156   154   ar
    53   156   155   ar
    54   157   154   ar
    55    70    69    1
    56   154   152   ar
    57   173   174    1
    58   155   153   ar
    59   163   164    2
    60   163   162    1
    61    69    67   ar
    62    69    68   ar
    63    67    65   ar
    64   150   149    2
    65    84    85    1
    66   162   165    1
    67   162   161    1
    68    62    61    2
    69    61    60    1
    70    68    66   ar
    71    90    89   ar
    72    65    64   ar
    73   153   152   ar
    74   152   151    1
    75   174   175   ar
    76   174   176   ar
    77   165   166    1
    78   149   161   am
    79   149   148    1
    80    88    89    1
    81    88    85    1
    82   146   145    1
    83   175   177   ar
    84    66    64   ar
    85    89    91   ar
    86    64    63    1
    87    85    86    1
    88   167   166   ar
    89   144   143    2
    90    60    63    1
    91    60    59    1
    92    98    97    1
    93   176   178   ar
    94    97    99    1
    95    97    96    1
    96   151   148    1
    97   166   168   ar
    98    45    44    1
    99   148   147    1
   100    42    43    1
   101    42    41    1
   102   177   178   ar
   103    92    86   am
   104    92    93    1
   105   145   142    1
   106   143   142    1
   107   141   142    1
   108    44    43    2
   109    44    46    1
   110    86    87    2
   111   107   105   ar
   112    96    93    1
   113   100   101    1
   114   104   105    1
   115   104   101    1
   116    41    40    1
   117   105   106   ar
   118    93    94    1
   119    95    94    2
   120   101   102    1
   121   118   117    2
   122   117   116    1
   123    40    37    1
   124   119   116    1
   125    33    32    2
   126   102   103    2
   127   102   108   am
   128    37    38    1
   129    37    36    1
   130   116   115    1
   131     7     6    2
   132   114   108    1
   133   114   113    1
   134     8     6   am
   135    22    20   ar
   136    22    21   ar
   137     6     5    1
   138   108   109    1
   139    32    36   am
   140    32    31    1
   141    38    39    2
   142    20    18   ar
   143    21    19   ar
   144    30    31    1
   145     5     2    1
   146   113   112    1
   147    31    34    1
   148    28    27    1
   149   109   110    1
   150   109   112    1
   151    27    29    1
   152    27    24    1
   153    26    25    2
   154   111   110    2
   155    18    16   ar
   156    18    17   ar
   157    25    24    1
   158    19    16   ar
   159     2     1    1
   160     2     3    1
   161    35    34    1
   162    16    14   ar
   163    24    23    1
   164    17    15   ar
   165     3     9   am
   166     3     4    2
   167     9    10    1
   168    14    15   ar
   169    14    13    1
   170    13    10    1
   171    10    11    1
   172    11    12    2
