@<TRIPOS>MOLECULE
tmp/2rg5A00.pdb
 192 181 0 0 0
SMALL
GASTEIGER

@<TRIPOS>ATOM
      1  N         -6.9820   -0.5150   27.2290 N.3    27  VAL27      -0.1245
      2  CA        -5.5750   -0.8560   27.4380 C.3    27  VAL27       0.1561
      3  C         -4.6680    0.2620   26.9520 C.2    27  VAL27       0.2260
      4  O         -4.0800    0.9770   27.7560 O.2    27  VAL27      -0.2867
      5  CB        -5.1800   -2.2170   26.8110 C.3    27  VAL27       0.0252
      6  CG1       -5.6160   -3.3710   27.6980 C.3    27  VAL27       0.0019
      7  CG2       -5.7530   -2.3590   25.4150 C.3    27  VAL27       0.0019
      8  N         -3.1360    9.6200   19.7730 N.3    28  TYR28      -0.1241
      9  CA        -3.7960    9.5520   18.4740 C.3    28  TYR28       0.1605
     10  C         -4.9550    8.5450   18.4260 C.2    28  TYR28       0.2264
     11  O         -5.6890    8.4590   17.4320 O.2    28  TYR28      -0.2867
     12  CB        -2.7780    9.3010   17.3540 C.3    28  TYR28       0.0534
     13  CG        -2.3010    7.8650   17.2070 C.ar   28  TYR28      -0.0201
     14  CD1       -3.1690    6.8580   16.8020 C.ar   28  TYR28      -0.0009
     15  CD2       -0.9560    7.5410   17.3710 C.ar   28  TYR28      -0.0009
     16  CE1       -2.7300    5.5690   16.6300 C.ar   28  TYR28       0.0417
     17  CE2       -0.5010    6.2420   17.1830 C.ar   28  TYR28       0.0417
     18  CZ        -1.3950    5.2640   16.8140 C.ar   28  TYR28       0.1957
     19  OH        -0.9550    3.9740   16.6290 O.3    28  TYR28      -0.2866
     20  N         -7.1970    2.4210   22.7080 N.3    31  VAL31      -0.1245
     21  CA        -7.3260    1.0460   22.2570 C.3    31  VAL31       0.1561
     22  C         -7.9520    0.1900   23.3360 C.2    31  VAL31       0.2260
     23  O         -7.6760    0.3710   24.5190 O.2    31  VAL31      -0.2867
     24  CB        -5.9430    0.4640   21.8300 C.3    31  VAL31       0.0252
     25  CG1       -6.0480   -1.0510   21.5940 C.3    31  VAL31       0.0019
     26  CG2       -5.4130    1.1750   20.5730 C.3    31  VAL31       0.0019
     27  N         -7.6620   -6.3690   19.3200 N.3    44  ALA44      -0.1231
     28  CA        -7.3500   -5.0220   19.7610 C.3    44  ALA44       0.1694
     29  C         -8.2660   -4.1020   18.9520 C.2    44  ALA44       0.2592
     30  O         -8.3700   -4.2390   17.7290 O.2    44  ALA44      -0.2718
     31  CB        -5.8860   -4.6910   19.5000 C.3    44  ALA44       0.0304
     32  N         -9.0150   -3.2480   19.6370 N.am   45  VAL45      -0.1966
     33  CA        -9.9120   -2.3460   18.9490 C.3    45  VAL45       0.1727
     34  C         -9.4520   -0.9570   19.2450 C.2    45  VAL45       0.2616
     35  O         -9.2430   -0.5870   20.4080 O.2    45  VAL45      -0.2715
     36  CB       -11.3860   -2.5210   19.3340 C.3    45  VAL45       0.0290
     37  CG1      -12.2510   -1.6880   18.3950 C.3    45  VAL45       0.0023
     38  CG2      -11.7960   -4.0110   19.3350 C.3    45  VAL45       0.0023
     39  N         -9.2640   -0.1940   18.1810 N.am   46  LYS46      -0.1977
     40  CA        -8.7720    1.1520   18.3070 C.3    46  LYS46       0.1596
     41  C         -9.7800    2.1500   17.8360 C.2    46  LYS46       0.2287
     42  O        -10.2670    2.0720   16.7000 O.2    46  LYS46      -0.2864
     43  CB        -7.4910    1.3310   17.4890 C.3    46  LYS46       0.0298
     44  CG        -6.6090    2.5090   17.9430 C.3    46  LYS46       0.0038
     45  CD        -6.2430    3.4150   16.7930 C.3    46  LYS46       0.0206
     46  CE        -5.3000    2.7300   15.8400 C.3    46  LYS46       0.1093
     47  NZ        -3.9010    3.1840   16.0440 N.3    46  LYS46      -0.1314
     48  N         -3.0220    6.0670    7.7600 N.3    64  GLU64      -0.1245
     49  CA        -2.9860    4.8360    8.5510 C.3    64  GLU64       0.1567
     50  C         -3.8150    3.6800    7.9900 C.2    64  GLU64       0.2260
     51  O         -3.4270    2.5220    8.1220 O.2    64  GLU64      -0.2867
     52  CB        -3.3480    5.0880   10.0160 C.3    64  GLU64       0.0388
     53  CG        -3.1520    3.8650   10.9070 C.3    64  GLU64       0.1160
     54  CD        -3.6180    4.0830   12.3400 C.2    64  GLU64       0.3649
     55  OE1       -4.2120    5.1410   12.6270 O.co2  64  GLU64      -0.2457
     56  OE2       -3.3910    3.1890   13.1840 O.co2  64  GLU64      -0.2457
     57  N         -2.1950    2.1910    4.6100 N.3    67  LEU67      -0.1231
     58  CA        -1.0870    1.3190    5.0180 C.3    67  LEU67       0.1693
     59  C         -1.5480   -0.0330    5.5850 C.2    67  LEU67       0.2591
     60  O         -0.9410   -1.0690    5.3100 O.2    67  LEU67      -0.2718
     61  CB        -0.2220    2.0050    6.0720 C.3    67  LEU67       0.0284
     62  CG         0.8210    3.0220    5.6420 C.3    67  LEU67       0.0019
     63  CD1        1.3110    3.7570    6.8710 C.3    67  LEU67       0.0001
     64  CD2        1.9980    2.3390    4.9150 C.3    67  LEU67       0.0001
     65  N         -2.5960   -0.0160    6.4040 N.am   68  LEU68      -0.1980
     66  CA        -3.0880   -1.2440    7.0340 C.3    68  LEU68       0.1596
     67  C         -3.7740   -2.1510    6.0310 C.2    68  LEU68       0.2287
     68  O         -3.7590   -3.3720    6.1610 O.2    68  LEU68      -0.2864
     69  CB        -4.0430   -0.9160    8.1860 C.3    68  LEU68       0.0297
     70  CG        -3.4100   -0.2710    9.4250 C.3    68  LEU68       0.0022
     71  CD1       -4.4920    0.1720   10.4240 C.3    68  LEU68       0.0001
     72  CD2       -2.4190   -1.2410   10.0940 C.3    68  LEU68       0.0001
     73  N          1.7250   -5.9600   11.6930 N.3    77  ILE77      -0.1245
     74  CA         0.3360   -5.9930   12.1420 C.3    77  ILE77       0.1561
     75  C         -0.6200   -5.8890   10.9620 C.2    77  ILE77       0.2260
     76  O         -0.3870   -5.1400   10.0050 O.2    77  ILE77      -0.2867
     77  CB         0.0110   -4.9780   13.2760 C.3    77  ILE77       0.0252
     78  CG1       -1.3540   -5.2960   13.9040 C.3    77  ILE77       0.0019
     79  CG2       -0.0280   -3.5490   12.7320 C.3    77  ILE77       0.0019
     80  CD1       -1.3140   -6.3390   14.9850 C.3    77  ILE77       0.0001
     81  N         -4.7970   -5.8500    9.4850 N.3    79  LEU79      -0.1245
     82  CA        -6.1150   -5.3270    9.8170 C.3    79  LEU79       0.1561
     83  C         -7.1570   -6.4290    9.7430 C.2    79  LEU79       0.2260
     84  O         -7.3100   -7.0670    8.7080 O.2    79  LEU79      -0.2867
     85  CB        -6.4970   -4.2190    8.8400 C.3    79  LEU79       0.0270
     86  CG        -7.7540   -3.4030    9.1650 C.3    79  LEU79       0.0019
     87  CD1       -7.6710   -2.7400   10.5310 C.3    79  LEU79       0.0001
     88  CD2       -8.0140   -2.3760    8.0670 C.3    79  LEU79       0.0001
     89  N        -10.5900    0.6390   14.0460 N.3    97  LEU97      -0.1245
     90  CA        -9.7490   -0.3090   13.3400 C.3    97  LEU97       0.1561
     91  C         -9.5370   -1.4350   14.3380 C.2    97  LEU97       0.2260
     92  O         -9.2600   -1.1770   15.5160 O.2    97  LEU97      -0.2867
     93  CB        -8.3990    0.3200   12.9740 C.3    97  LEU97       0.0270
     94  CG        -8.3280    1.5980   12.1500 C.3    97  LEU97       0.0019
     95  CD1       -6.8850    2.1050   12.1530 C.3    97  LEU97       0.0001
     96  CD2       -8.7880    1.3230   10.7260 C.3    97  LEU97       0.0001
     97  N         -7.6420   -5.2340   15.2450 N.3    99  THR99      -0.1203
     98  CA        -6.4460   -6.0080   15.0010 C.3    99  THR99       0.1994
     99  C         -6.4040   -7.2400   15.9100 C.2    99  THR99       0.2618
    100  O         -7.2340   -7.3810   16.7930 O.2    99  THR99      -0.2717
    101  CB        -5.2590   -5.0590   15.2610 C.3    99  THR99       0.1784
    102  OG1       -4.6760   -4.6490   14.0210 O.3    99  THR99      -0.2211
    103  CG2       -4.2400   -5.6440   16.1940 C.3    99  THR99       0.0376
    104  N         -5.4190   -8.1130   15.7180 N.am  100  HIS100     -0.1961
    105  CA        -5.2540   -9.2700   16.6010 C.3   100  HIS100      0.1787
    106  C         -4.6480   -8.7550   17.8850 C.2   100  HIS100      0.2620
    107  O         -3.8510   -7.8170   17.8710 O.2   100  HIS100     -0.2715
    108  CB        -4.2820  -10.3050   16.0160 C.3   100  HIS100      0.0785
    109  CG        -4.9370  -11.3080   15.1250 C.ar  100  HIS100      0.0821
    110  ND1       -4.5030  -11.5570   13.8420 N.ar  100  HIS100     -0.2267
    111  CD2       -6.0300  -12.0860   15.3110 C.ar  100  HIS100      0.1154
    112  CE1       -5.2930  -12.4510   13.2770 C.ar  100  HIS100      0.1986
    113  NE2       -6.2350  -12.7800   14.1430 N.ar  100  HIS100     -0.2212
    114  N         -5.0160   -9.3850   18.9920 N.am  101  LEU101     -0.1963
    115  CA        -4.4760   -9.0280   20.2840 C.3   101  LEU101      0.1728
    116  C         -3.3780  -10.0370   20.5840 C.2   101  LEU101      0.2616
    117  O         -3.6110  -11.2480   20.5120 O.2   101  LEU101     -0.2715
    118  CB        -5.5640   -9.1440   21.3590 C.3   101  LEU101      0.0311
    119  CG        -5.0960   -8.7140   22.7510 C.3   101  LEU101      0.0022
    120  CD1       -4.8770   -7.2010   22.7730 C.3   101  LEU101      0.0001
    121  CD2       -6.0640   -9.1420   23.8430 C.3   101  LEU101      0.0001
    122  N         -2.1830   -9.5430   20.8930 N.am  102  MET102     -0.1963
    123  CA        -1.0590  -10.4050   21.2350 C.3   102  MET102      0.1736
    124  C         -0.9880  -10.4200   22.7420 C.2   102  MET102      0.2617
    125  O         -1.7320   -9.6970   23.3990 O.2   102  MET102     -0.2715
    126  CB         0.2370   -9.8140   20.6870 C.3   102  MET102      0.0427
    127  CG         0.0890   -9.2490   19.2940 C.3   102  MET102      0.0599
    128  SD         0.0540  -10.6090   18.1290 S.3   102  MET102     -0.1393
    129  CE         1.8220  -11.0810   18.0910 C.3   102  MET102      0.0692
    130  N         -0.0650  -11.2060   23.2880 N.am  103  GLY103     -0.1940
    131  CA         0.1170  -11.3450   24.7220 C.3   103  GLY103      0.2014
    132  C          0.9580  -10.2780   25.3870 C.2   103  GLY103      0.2639
    133  O          0.7140   -9.9140   26.5290 O.2   103  GLY103     -0.2714
    134  N          1.9790   -9.7900   24.7040 N.am  104  ALA104     -0.1963
    135  CA         2.8170   -8.7710   25.3100 C.3   104  ALA104      0.1728
    136  C          3.6820   -8.0610   24.2860 C.2   104  ALA104      0.2616
    137  O          3.8040   -8.5090   23.1520 O.2   104  ALA104     -0.2715
    138  CB         3.6770   -9.3710   26.4180 C.3   104  ALA104      0.0334
    139  N          4.2450   -6.9280   24.6960 N.am  105  ASP105     -0.1971
    140  CA         5.1400   -6.1420   23.8500 C.3   105  ASP105      0.1709
    141  C          6.5750   -6.4070   24.3060 C.2   105  ASP105      0.2293
    142  O          6.7980   -7.1860   25.2330 O.2   105  ASP105     -0.2864
    143  CB         4.7840   -4.6460   23.8890 C.3   105  ASP105      0.1436
    144  CG         4.8360   -4.0580   25.2890 C.2   105  ASP105      0.3671
    145  OD1        5.9250   -4.0400   25.8900 O.co2 105  ASP105     -0.2456
    146  OD2        3.8010   -3.5580   25.7700 O.co2 105  ASP105     -0.2456
    147  N          7.8540   -1.1150   22.6680 N.3   147  SER147     -0.1217
    148  CA         6.3910   -1.0230   22.7790 C.3   147  SER147      0.1889
    149  C          5.5510   -1.2210   21.5150 C.2   147  SER147      0.2288
    150  O          4.3890   -1.6120   21.6170 O.2   147  SER147     -0.2866
    151  CB         5.9480    0.2540   23.5080 C.3   147  SER147      0.2089
    152  OG         6.6040    1.4000   22.9920 O.3   147  SER147     -0.2183
    153  N          4.9150   -6.2700   19.0010 N.3   150  ALA150     -0.1245
    154  CA         4.0290   -7.1510   19.7520 C.3   150  ALA150      0.1562
    155  C          4.3870   -8.6320   19.6720 C.2   150  ALA150      0.2260
    156  O          4.4180   -9.2010   18.5880 O.2   150  ALA150     -0.2867
    157  CB         2.5890   -6.9300   19.2950 C.3   150  ALA150      0.0290
    158  N          4.1520   -2.8820   15.1080 N.3   160  LEU160     -0.1231
    159  CA         3.0230   -1.9670   15.2520 C.3   160  LEU160      0.1693
    160  C          3.4090   -0.5080   14.9910 C.2   160  LEU160      0.2592
    161  O          4.5440   -0.1140   15.2320 O.2   160  LEU160     -0.2718
    162  CB         2.4240   -2.0830   16.6480 C.3   160  LEU160      0.0284
    163  CG         1.8730   -3.4540   17.0200 C.3   160  LEU160      0.0019
    164  CD1        0.7120   -3.3100   17.9480 C.3   160  LEU160      0.0001
    165  CD2        1.4640   -4.1870   15.7510 C.3   160  LEU160      0.0001
    166  N          2.4530    0.2720   14.4810 N.am  161  ASP161     -0.1960
    167  CA         2.5940    1.7230   14.2950 C.3   161  ASP161      0.1840
    168  C          3.6010    2.2510   13.2740 C.2   161  ASP161      0.2622
    169  O          4.0840    3.3560   13.4080 O.2   161  ASP161     -0.2715
    170  CB         2.8170    2.4160   15.6530 C.3   161  ASP161      0.1450
    171  CG         1.6780    2.1450   16.6540 C.2   161  ASP161      0.3671
    172  OD1        0.5780    1.7050   16.2150 O.co2 161  ASP161     -0.2456
    173  OD2        1.9050    2.3190   17.8830 O.co2 161  ASP161     -0.2456
    174  N          3.8790    1.4900   12.2320 N.am  162  PHE162     -0.1974
    175  CA         4.8370    1.9170   11.2190 C.3   162  PHE162      0.1639
    176  C          4.2680    2.9950   10.2920 C.2   162  PHE162      0.2290
    177  O          3.0790    2.9980    9.9860 O.2   162  PHE162     -0.2864
    178  CB         5.2240    0.6960   10.3650 C.3   162  PHE162      0.0560
    179  CG         4.0380   -0.1390    9.9220 C.ar  162  PHE162     -0.0200
    180  CD1        3.5520   -1.1560   10.7190 C.ar  162  PHE162     -0.0042
    181  CD2        3.4140    0.1020    8.7120 C.ar  162  PHE162     -0.0042
    182  CE1        2.4530   -1.9040   10.3310 C.ar  162  PHE162     -0.0003
    183  CE2        2.3130   -0.6440    8.3040 C.ar  162  PHE162     -0.0003
    184  CZ         1.8310   -1.6480    9.1200 C.ar  162  PHE162     -0.0000
    185  N          3.5880    6.0820   10.4080 N.3   164  LEU164     -0.1245
    186  CA         2.7050    7.1370   10.8590 C.3   164  LEU164      0.1561
    187  C          3.5300    8.3630   11.2130 C.2   164  LEU164      0.2260
    188  O          3.2040    9.4820   10.8060 O.2   164  LEU164     -0.2867
    189  CB         1.8980    6.6350   12.0560 C.3   164  LEU164      0.0270
    190  CG         1.0360    5.4470   11.6330 C.3   164  LEU164      0.0019
    191  CD1        0.1180    4.9550   12.7640 C.3   164  LEU164      0.0001
    192  CD2        0.2400    5.8650   10.4090 C.3   164  LEU164      0.0001
@<TRIPOS>BOND
     1    57    58    1
     2    64    62    1
     3    58    59    1
     4    58    61    1
     5    60    59    2
     6    59    65   am
     7    62    61    1
     8    62    63    1
     9    67    68    2
    10    67    66    1
    11    65    66    1
    12    66    69    1
    13    48    49    1
    14    50    51    2
    15    50    49    1
    16    88    86    1
    17    69    70    1
    18   183   181   ar
    19   183   184   ar
    20    49    52    1
    21    84    83    2
    22   181   179   ar
    23    85    86    1
    24    85    82    1
    25   184   182   ar
    26    86    87    1
    27    70    72    1
    28    70    71    1
    29    81    82    1
    30    83    82    1
    31   179   178    1
    32   179   180   ar
    33   177   176    2
    34    76    75    2
    35    52    53    1
    36   176   175    1
    37   182   180   ar
    38   178   175    1
    39   185   186    1
    40   192   190    1
    41    96    94    1
    42   188   187    2
    43   186   187    1
    44   186   189    1
    45    53    54    1
    46    75    74    1
    47   175   174    1
    48   190   189    1
    49   190   191    1
    50    73    74    1
    51    74    77    1
    52    94    95    1
    53    94    93    1
    54   174   168   am
    55    54    55   ar
    56    54    56   ar
    57    79    77    1
    58    93    90    1
    59   168   169    2
    60   168   167    1
    61    77    78    1
    62   112   110   ar
    63   112   113   ar
    64    90    89    1
    65    90    91    1
    66   110   109   ar
    67    78    80    1
    68   102   101    1
    69   113   111   ar
    70   167   166    1
    71   167   170    1
    72    91    92    2
    73   166   160   am
    74   160   161    2
    75   160   159    1
    76    98    97    1
    77    98   101    1
    78    98    99    1
    79   158   159    1
    80   109   111   ar
    81   109   108    1
    82   159   162    1
    83   101   103    1
    84   170   171    1
    85   104    99   am
    86   104   105    1
    87   165   163    1
    88    46    47    1
    89    46    45    1
    90    99   100    2
    91   108   105    1
    92   172   171   ar
    93   105   106    1
    94    19    18    1
    95    16    14   ar
    96    16    18   ar
    97   162   163    1
    98   171   173   ar
    99    42    41    2
   100    45    44    1
   101    14    13   ar
   102    18    17   ar
   103   163   164    1
   104    17    15   ar
   105    13    12    1
   106    13    15   ar
   107    12     9    1
   108    11    10    2
   109    43    44    1
   110    43    40    1
   111    30    29    2
   112    41    40    1
   113   107   106    2
   114   106   114   am
   115   129   128    1
   116   128   127    1
   117    39    40    1
   118    39    34   am
   119    37    36    1
   120    10     9    1
   121     9     8    1
   122   156   155    2
   123    33    34    1
   124    33    36    1
   125    33    32    1
   126    29    32   am
   127    29    28    1
   128   114   115    1
   129   153   154    1
   130    34    35    2
   131   127   126    1
   132   157   154    1
   133    27    28    1
   134    36    38    1
   135    31    28    1
   136   155   154    1
   137   115   116    1
   138   115   118    1
   139   117   116    2
   140    26    24    1
   141   116   122   am
   142   126   123    1
   143   122   123    1
   144   123   124    1
   145   118   119    1
   146   149   150    2
   147   149   148    1
   148    25    24    1
   149    24    21    1
   150    21    20    1
   151    21    22    1
   152   147   148    1
   153   124   130   am
   154   124   125    2
   155   119   120    1
   156   119   121    1
   157   148   151    1
   158   152   151    1
   159   137   136    2
   160   130   131    1
   161    22    23    2
   162   140   143    1
   163   140   141    1
   164   140   139    1
   165   143   144    1
   166   136   139   am
   167   136   135    1
   168   141   142    2
   169   134   135    1
   170   134   132   am
   171   131   132    1
   172   144   146   ar
   173   144   145   ar
   174   135   138    1
   175   132   133    2
   176     7     5    1
   177     5     2    1
   178     5     6    1
   179     3     2    1
   180     3     4    2
   181     1     2    1
