@<TRIPOS>MOLECULE
tmp/2rg6A01.pdb
 93 92 0 0 0
SMALL
GASTEIGER

@<TRIPOS>ATOM
      1  N         18.3110   13.1380   13.1160 N.3   176  ILE176     -0.1231
      2  CA        16.9790   13.7330   13.0320 C.3   176  ILE176      0.1692
      3  C         16.6670   14.6020   14.2490 C.2   176  ILE176      0.2592
      4  O         16.0700   15.6770   14.1200 O.2   176  ILE176     -0.2718
      5  CB        15.8540   12.7700   12.6120 C.3   176  ILE176      0.0266
      6  CG1       15.8210   11.5140   13.4720 C.3   176  ILE176      0.0019
      7  CG2       15.9670   12.4210   11.1220 C.3   176  ILE176      0.0020
      8  CD1       14.7180   10.5540   13.0340 C.3   176  ILE176      0.0001
      9  N         17.1620   14.1940   15.4140 N.am  177  MET177     -0.1965
     10  CA        16.9600   14.9810   16.6250 C.3   177  MET177      0.1736
     11  C         17.6570   16.3370   16.5080 C.2   177  MET177      0.2616
     12  O         17.1080   17.3600   16.9170 O.2   177  MET177     -0.2715
     13  CB        17.4870   14.2330   17.8560 C.3   177  MET177      0.0427
     14  CG        17.2210   14.9440   19.1680 C.3   177  MET177      0.0599
     15  SD        17.7960   14.0390   20.6500 S.3   177  MET177     -0.1393
     16  CE        19.6090   13.9310   20.3060 C.3   177  MET177      0.0692
     17  N         18.8640   16.3350   15.9540 N.am  178  LEU178     -0.1963
     18  CA        19.6750   17.5520   15.8440 C.3   178  LEU178      0.1728
     19  C         19.7370   18.1500   14.4370 C.2   178  LEU178      0.2616
     20  O         20.4240   19.1460   14.2150 O.2   178  LEU178     -0.2715
     21  CB        21.0990   17.2740   16.3620 C.3   178  LEU178      0.0311
     22  CG        21.1350   16.6720   17.7700 C.3   178  LEU178      0.0022
     23  CD1       22.4990   16.0700   18.0970 C.3   178  LEU178      0.0001
     24  CD2       20.7020   17.6800   18.8370 C.3   178  LEU178      0.0001
     25  N         19.0540   17.5190   13.4850 N.am  179  ASN179     -0.1958
     26  CA        19.0100   18.0070   12.1070 C.3   179  ASN179      0.1819
     27  C         20.3930   18.3600   11.5610 C.2   179  ASN179      0.2621
     28  O         20.5390   19.3540   10.8420 O.2   179  ASN179     -0.2715
     29  CB        18.1280   19.2640   12.0690 C.3   179  ASN179      0.1195
     30  CG        17.6780   19.6160   10.6680 C.2   179  ASN179      0.2630
     31  OD1       17.2080   18.7580    9.9330 O.2   179  ASN179     -0.2716
     32  ND2       17.8390   20.8820   10.2850 N.am  179  ASN179     -0.0877
     33  N         21.3970   17.5450   11.8790 N.am  180  TRP180     -0.1974
     34  CA        22.7730   17.8820   11.5420 C.3   180  TRP180      0.1640
     35  C         23.4320   17.2930   10.3080 C.2   180  TRP180      0.2290
     36  O         24.4970   17.7360    9.9010 O.2   180  TRP180     -0.2864
     37  CB        23.6780   17.8390   12.7690 C.3   180  TRP180      0.0576
     38  CG        23.9660   16.4650   13.3180 C.ar  180  TRP180      0.0006
     39  CD1       23.6720   15.2520   12.7410 C.ar  180  TRP180      0.0946
     40  CD2       24.6280   16.1750   14.5530 C.ar  180  TRP180      0.0152
     41  NE1       24.1050   14.2290   13.5630 N.ar  180  TRP180     -0.2442
     42  CE2       24.7210   14.7740   14.6640 C.ar  180  TRP180      0.0810
     43  CE3       25.1680   16.9720   15.5730 C.ar  180  TRP180      0.0012
     44  CZ2       25.3070   14.1500   15.7740 C.ar  180  TRP180      0.0191
     45  CZ3       25.7790   16.3520   16.6540 C.ar  180  TRP180      0.0001
     46  CH2       25.8670   14.9570   16.7300 C.ar  180  TRP180      0.0015
     47  N         17.2690   17.4990   24.8720 N.3   211  HIS211     -0.1226
     48  CA        18.0970   17.2080   23.6890 C.3   211  HIS211      0.1752
     49  C         19.5930   17.4160   23.9220 C.2   211  HIS211      0.2595
     50  O         20.4360   16.7460   23.3130 O.2   211  HIS211     -0.2718
     51  CB        17.6590   18.0740   22.4970 C.3   211  HIS211      0.0759
     52  CG        16.4160   17.6050   21.8060 C.ar  211  HIS211      0.0818
     53  ND1       15.4690   16.7990   22.4060 N.ar  211  HIS211     -0.2268
     54  CD2       15.9490   17.8670   20.5630 C.ar  211  HIS211      0.1154
     55  CE1       14.4870   16.5680   21.5550 C.ar  211  HIS211      0.1986
     56  NE2       14.7500   17.2100   20.4320 N.ar  211  HIS211     -0.2212
     57  N         19.9360   18.3860   24.7600 N.am  212  ILE212     -0.1980
     58  CA        21.3450   18.6820   24.9980 C.3   212  ILE212      0.1595
     59  C         21.9760   17.5850   25.8490 C.2   212  ILE212      0.2287
     60  O         23.0510   17.0770   25.5280 O.2   212  ILE212     -0.2864
     61  CB        21.5350   20.0740   25.6120 C.3   212  ILE212      0.0276
     62  CG1       20.9640   21.1320   24.6670 C.3   212  ILE212      0.0022
     63  CG2       23.0230   20.3450   25.8890 C.3   212  ILE212      0.0022
     64  CD1       21.3840   20.9500   23.2290 C.3   212  ILE212      0.0001
     65  N         24.9480   21.6220    8.3160 N.3   235  SER235     -0.1217
     66  CA        24.5090   22.7470    9.1310 C.3   235  SER235      0.1889
     67  C         25.6740   23.4830    9.7810 C.2   235  SER235      0.2288
     68  O         26.3810   22.9170   10.6140 O.2   235  SER235     -0.2866
     69  CB        23.5580   22.2410   10.2230 C.3   235  SER235      0.2089
     70  OG        23.4440   23.1780   11.2870 O.3   235  SER235     -0.2183
     71  N         25.4420   25.9210   11.9630 N.3   237  SER237     -0.1202
     72  CA        25.1520   26.0580   13.3870 C.3   237  SER237      0.2020
     73  C         25.5250   24.7740   14.1250 C.2   237  SER237      0.2618
     74  O         26.0590   24.8140   15.2330 O.2   237  SER237     -0.2717
     75  CB        23.6900   26.4630   13.6330 C.3   237  SER237      0.2103
     76  OG        22.7930   25.3780   13.4500 O.3   237  SER237     -0.2182
     77  N         25.2860   23.6330   13.4830 N.am  238  ALA238     -0.1979
     78  CA        25.6070   22.3430   14.0760 C.3   238  ALA238      0.1597
     79  C         27.1230   22.1730   14.2060 C.2   238  ALA238      0.2287
     80  O         27.6140   21.6970   15.2200 O.2   238  ALA238     -0.2864
     81  CB        25.0100   21.2060   13.2360 C.3   238  ALA238      0.0319
     82  N         28.2730   24.2730   17.0580 N.3   241  TYR241     -0.1241
     83  CA        27.8620   23.6730   18.3130 C.3   241  TYR241      0.1605
     84  C         28.7340   22.4790   18.6890 C.2   241  TYR241      0.2264
     85  O         29.2180   22.4040   19.8070 O.2   241  TYR241     -0.2867
     86  CB        26.3840   23.2890   18.2710 C.3   241  TYR241      0.0534
     87  CG        25.9290   22.5670   19.5130 C.ar  241  TYR241     -0.0201
     88  CD1       25.8370   23.2330   20.7230 C.ar  241  TYR241     -0.0009
     89  CD2       25.6230   21.2130   19.4790 C.ar  241  TYR241     -0.0009
     90  CE1       25.4560   22.5720   21.8780 C.ar  241  TYR241      0.0417
     91  CE2       25.2240   20.5470   20.6280 C.ar  241  TYR241      0.0417
     92  CZ        25.1330   21.2370   21.8150 C.ar  241  TYR241      0.1957
     93  OH        24.7540   20.5790   22.9620 O.3   241  TYR241     -0.2866
@<TRIPOS>BOND
     1    65    66    1
     2    66    67    1
     3    66    69    1
     4    67    68    2
     5    36    35    2
     6    31    30    2
     7    69    70    1
     8    32    30   am
     9    35    34    1
    10    30    29    1
    11    28    27    2
    12     7     5    1
    13    34    33    1
    14    34    37    1
    15    27    33   am
    16    27    26    1
    17    71    72    1
    18    29    26    1
    19    26    25    1
    20     5     2    1
    21     5     6    1
    22    39    38   ar
    23    39    41   ar
    24    37    38    1
    25     2     1    1
    26     2     3    1
    27     8     6    1
    28    81    78    1
    29    38    40   ar
    30    72    75    1
    31    72    73    1
    32    76    75    1
    33    77    78    1
    34    77    73   am
    35    25    19   am
    36    41    42   ar
    37    78    79    1
    38     4     3    2
    39    73    74    2
    40    79    80    2
    41    20    19    2
    42     3     9   am
    43    19    18    1
    44    40    42   ar
    45    40    43   ar
    46    42    44   ar
    47     9    10    1
    48    43    45   ar
    49    44    46   ar
    50    18    17    1
    51    18    21    1
    52    17    11   am
    53    21    22    1
    54    11    10    1
    55    11    12    2
    56    10    13    1
    57    45    46   ar
    58    82    83    1
    59    22    23    1
    60    22    24    1
    61    13    14    1
    62    86    83    1
    63    86    87    1
    64    83    84    1
    65    84    85    2
    66    14    15    1
    67    89    87   ar
    68    89    91   ar
    69    87    88   ar
    70    16    15    1
    71    56    54   ar
    72    56    55   ar
    73    54    52   ar
    74    91    92   ar
    75    88    90   ar
    76    55    53   ar
    77    52    53   ar
    78    52    51    1
    79    92    90   ar
    80    92    93    1
    81    51    48    1
    82    64    62    1
    83    50    49    2
    84    48    49    1
    85    48    47    1
    86    49    57   am
    87    62    61    1
    88    57    58    1
    89    58    61    1
    90    58    59    1
    91    60    59    2
    92    61    63    1
