@<TRIPOS>MOLECULE
tmp/2rg6A00.pdb
 194 182 0 0 0
SMALL
GASTEIGER

@<TRIPOS>ATOM
      1  N         -7.4970    1.2980   27.3930 N.3    27  VAL27      -0.1231
      2  CA        -6.1210    0.8510   27.5950 C.3    27  VAL27       0.1692
      3  C         -5.1150    1.9650   27.3300 C.2    27  VAL27       0.2592
      4  O         -3.9650    1.8750   27.7450 O.2    27  VAL27      -0.2718
      5  CB        -5.7840   -0.3840   26.7340 C.3    27  VAL27       0.0266
      6  CG1       -7.0490   -1.0570   26.2290 C.3    27  VAL27       0.0020
      7  CG2       -4.9060    0.0140   25.5720 C.3    27  VAL27       0.0020
      8  N         -5.5440    2.9980   26.6150 N.am   28  GLY28      -0.1957
      9  CA        -4.6510    4.0860   26.2310 C.3    28  GLY28       0.1869
     10  C         -4.9930    5.3870   26.9400 C.2    28  GLY28       0.2309
     11  O         -6.1610    5.6780   27.1870 O.2    28  GLY28      -0.2863
     12  N         -7.7350    4.2070   22.6870 N.3    31  VAL31      -0.1245
     13  CA        -7.7440    2.7740   22.4280 C.3    31  VAL31       0.1561
     14  C         -8.4370    2.0200   23.5470 C.2    31  VAL31       0.2260
     15  O         -8.2420    2.3260   24.7310 O.2    31  VAL31      -0.2867
     16  CB        -6.2830    2.2470   22.2770 C.3    31  VAL31       0.0252
     17  CG1       -6.2760    0.7420   22.0020 C.3    31  VAL31       0.0019
     18  CG2       -5.5220    3.0190   21.1750 C.3    31  VAL31       0.0019
     19  N         -9.3960   -2.1920   24.7350 N.3    33  ALA33      -0.1245
     20  CA        -9.2480   -3.6160   24.4930 C.3    33  ALA33       0.1562
     21  C        -10.6990   -4.1050   24.4290 C.2    33  ALA33       0.2260
     22  O        -11.5810   -3.5120   25.0630 O.2    33  ALA33      -0.2867
     23  CB        -8.5190   -4.2780   25.6750 C.3    33  ALA33       0.0290
     24  N         -9.1650  -11.4860   21.6430 N.3    42  ARG42      -0.1245
     25  CA        -9.1710  -10.1400   22.2090 C.3    42  ARG42       0.1563
     26  C         -8.5650   -9.2390   21.1420 C.2    42  ARG42       0.2260
     27  O         -7.6250   -9.6350   20.4500 O.2    42  ARG42      -0.2867
     28  CB        -8.3110  -10.0810   23.4670 C.3    42  ARG42       0.0307
     29  CG        -8.9740  -10.6870   24.6990 C.3    42  ARG42       0.0489
     30  CD        -7.9310  -11.0820   25.7390 C.3    42  ARG42       0.2205
     31  NE        -8.5360  -11.5870   26.9660 N.pl3  42  ARG42      -0.0865
     32  CZ        -7.8700  -11.8170   28.0950 C.cat  42  ARG42       0.5346
     33  NH1       -6.5660  -11.5870   28.1560 N.pl3  42  ARG42       0.1354
     34  NH2       -8.5080  -12.2770   29.1650 N.pl3  42  ARG42       0.1354
     35  N         -7.6680   -4.8860   19.9040 N.3    44  ALA44      -0.1231
     36  CA        -7.4500   -3.5050   20.2880 C.3    44  ALA44       0.1694
     37  C         -8.2750   -2.6940   19.2830 C.2    44  ALA44       0.2592
     38  O         -8.1730   -2.8960   18.0710 O.2    44  ALA44      -0.2718
     39  CB        -5.9630   -3.1310   20.1780 C.3    44  ALA44       0.0304
     40  N         -9.0960   -1.7880   19.7940 N.am   45  VAL45      -0.1966
     41  CA        -9.9290   -0.9420   18.9560 C.3    45  VAL45       0.1727
     42  C         -9.4950    0.5000   19.1780 C.2    45  VAL45       0.2616
     43  O         -9.5150    0.9980   20.3040 O.2    45  VAL45      -0.2715
     44  CB       -11.4220   -1.1120   19.2990 C.3    45  VAL45       0.0290
     45  CG1      -12.2950   -0.2630   18.3650 C.3    45  VAL45       0.0023
     46  CG2      -11.8230   -2.5970   19.2540 C.3    45  VAL45       0.0023
     47  N         -9.0820    1.1590   18.1080 N.am   46  LYS46      -0.1977
     48  CA        -8.6590    2.5570   18.2200 C.3    46  LYS46       0.1596
     49  C         -9.6720    3.4560   17.5510 C.2    46  LYS46       0.2287
     50  O         -9.9930    3.2630   16.3710 O.2    46  LYS46      -0.2864
     51  CB        -7.3030    2.7910   17.5450 C.3    46  LYS46       0.0298
     52  CG        -6.8800    4.2630   17.6070 C.3    46  LYS46       0.0038
     53  CD        -5.3770    4.4560   17.3910 C.3    46  LYS46       0.0206
     54  CE        -4.9950    4.2540   15.9430 C.3    46  LYS46       0.1093
     55  NZ        -3.5510    4.6170   15.6940 N.3    46  LYS46      -0.1314
     56  N         -2.8300    6.7030    7.5630 N.3    64  GLU64      -0.1245
     57  CA        -2.8210    5.5290    8.4330 C.3    64  GLU64       0.1567
     58  C         -3.6090    4.3560    7.8500 C.2    64  GLU64       0.2260
     59  O         -3.1480    3.2090    7.8820 O.2    64  GLU64      -0.2867
     60  CB        -3.3450    5.8620    9.8310 C.3    64  GLU64       0.0388
     61  CG        -3.2560    4.6420   10.7520 C.3    64  GLU64       0.1160
     62  CD        -3.5030    4.9730   12.2070 C.2    64  GLU64       0.3649
     63  OE1       -3.9900    6.0810   12.4770 O.co2  64  GLU64      -0.2457
     64  OE2       -3.2330    4.1070   13.0730 O.co2  64  GLU64      -0.2457
     65  N         -1.7570    2.7400    4.9030 N.3    67  LEU67      -0.1231
     66  CA        -0.6120    1.9620    5.3720 C.3    67  LEU67       0.1693
     67  C         -1.0830    0.6040    5.9240 C.2    67  LEU67       0.2591
     68  O         -0.5300   -0.4510    5.5910 O.2    67  LEU67      -0.2718
     69  CB         0.0890    2.7230    6.4980 C.3    67  LEU67       0.0284
     70  CG         1.0520    3.8420    6.1010 C.3    67  LEU67       0.0019
     71  CD1        1.3130    4.7820    7.3020 C.3    67  LEU67       0.0001
     72  CD2        2.3600    3.2200    5.6020 C.3    67  LEU67       0.0001
     73  N         -2.0460    0.6510    6.8330 N.am   68  LEU68      -0.1980
     74  CA        -2.5630   -0.5550    7.4720 C.3    68  LEU68       0.1596
     75  C         -3.1830   -1.5330    6.4780 C.2    68  LEU68       0.2287
     76  O         -3.1070   -2.7540    6.6540 O.2    68  LEU68      -0.2864
     77  CB        -3.5770   -0.1970    8.5610 C.3    68  LEU68       0.0297
     78  CG        -2.9430    0.4070    9.8220 C.3    68  LEU68       0.0022
     79  CD1       -4.0450    0.9590   10.7330 C.3    68  LEU68       0.0001
     80  CD2       -2.0920   -0.6370   10.5600 C.3    68  LEU68       0.0001
     81  N          2.0440   -4.9660   12.6570 N.3    77  ILE77      -0.1245
     82  CA         0.6510   -5.0650   13.1050 C.3    77  ILE77       0.1561
     83  C         -0.2750   -5.0380   11.9160 C.2    77  ILE77       0.2260
     84  O         -0.0400   -4.2900   10.9730 O.2    77  ILE77      -0.2867
     85  CB         0.2750   -3.9940   14.1360 C.3    77  ILE77       0.0252
     86  CG1       -1.0230   -4.3960   14.8520 C.3    77  ILE77       0.0019
     87  CG2        0.1060   -2.6420   13.4510 C.3    77  ILE77       0.0019
     88  CD1       -0.8370   -5.5010   15.8640 C.3    77  ILE77       0.0001
     89  N        -10.4030    1.5780   14.0430 N.3    97  LEU97      -0.1245
     90  CA        -9.4620    0.5810   13.5120 C.3    97  LEU97       0.1561
     91  C         -9.2810   -0.5420   14.5330 C.2    97  LEU97       0.2260
     92  O         -9.1680   -0.2860   15.7310 O.2    97  LEU97      -0.2867
     93  CB        -8.0930    1.2360   13.2420 C.3    97  LEU97       0.0270
     94  CG        -8.0900    2.4560   12.3160 C.3    97  LEU97       0.0019
     95  CD1       -6.7320    3.1480   12.3380 C.3    97  LEU97       0.0001
     96  CD2       -8.4220    2.0410   10.8830 C.3    97  LEU97       0.0001
     97  N         -7.1890   -4.1700   15.6290 N.3    99  THR99      -0.1203
     98  CA        -6.0450   -5.0710   15.4630 C.3    99  THR99       0.1994
     99  C         -6.1010   -6.1540   16.5390 C.2    99  THR99       0.2618
    100  O         -6.8640   -6.0550   17.4960 O.2    99  THR99      -0.2717
    101  CB        -4.6680   -4.3250   15.5490 C.3    99  THR99       0.1784
    102  OG1       -4.4440   -3.8760   16.8940 O.3    99  THR99      -0.2211
    103  CG2       -4.6060   -3.1460   14.5900 C.3    99  THR99       0.0376
    104  N         -5.2340   -7.1560   16.4190 N.am  100  HIS100     -0.1961
    105  CA        -5.1320   -8.1760   17.4520 C.3   100  HIS100      0.1787
    106  C         -4.6530   -7.4510   18.7090 C.2   100  HIS100      0.2620
    107  O         -3.9290   -6.4550   18.6060 O.2   100  HIS100     -0.2715
    108  CB        -4.0470   -9.2050   17.0710 C.3   100  HIS100      0.0785
    109  CG        -4.5050  -10.2650   16.1180 C.ar  100  HIS100      0.0821
    110  ND1       -4.0930  -10.3120   14.8010 N.ar  100  HIS100     -0.2267
    111  CD2       -5.2750  -11.3630   16.3080 C.ar  100  HIS100      0.1154
    112  CE1       -4.6290  -11.3670   14.2090 C.ar  100  HIS100      0.1986
    113  NE2       -5.3470  -12.0240   15.1020 N.ar  100  HIS100     -0.2212
    114  N         -5.0170   -7.9580   19.8850 N.am  101  LEU101     -0.1963
    115  CA        -4.5170   -7.4200   21.1510 C.3   101  LEU101      0.1728
    116  C         -3.3350   -8.3150   21.4970 C.2   101  LEU101      0.2616
    117  O         -3.4050   -9.5430   21.3280 O.2   101  LEU101     -0.2715
    118  CB        -5.5780   -7.5130   22.2600 C.3   101  LEU101      0.0311
    119  CG        -5.2020   -6.8330   23.5760 C.3   101  LEU101      0.0022
    120  CD1       -5.2640   -5.3120   23.4090 C.3   101  LEU101      0.0001
    121  CD2       -6.1170   -7.2820   24.7180 C.3   101  LEU101      0.0001
    122  N         -2.2280   -7.7000   21.8990 N.am  102  MET102     -0.1963
    123  CA        -1.0300   -8.4550   22.2050 C.3   102  MET102      0.1736
    124  C         -0.9060   -8.6850   23.7040 C.2   102  MET102      0.2617
    125  O         -1.7700   -8.2910   24.4800 O.2   102  MET102     -0.2715
    126  CB         0.1990   -7.7330   21.6390 C.3   102  MET102      0.0427
    127  CG         0.0870   -7.4250   20.1470 C.3   102  MET102      0.0599
    128  SD         0.0760   -8.9170   19.1600 S.3   102  MET102     -0.1393
    129  CE         1.7260   -9.5780   19.4720 C.3   102  MET102      0.0692
    130  N          0.1660   -9.3380   24.1190 N.am  103  GLY103     -0.1940
    131  CA         0.3540   -9.6270   25.5270 C.3   103  GLY103      0.2014
    132  C          1.0510   -8.5390   26.3210 C.2   103  GLY103      0.2639
    133  O          0.6720   -8.2480   27.4570 O.2   103  GLY103     -0.2714
    134  N          2.1030   -7.9560   25.7510 N.am  104  ALA104     -0.1963
    135  CA         2.8560   -6.9410   26.4760 C.3   104  ALA104      0.1728
    136  C          3.7440   -6.1670   25.5150 C.2   104  ALA104      0.2616
    137  O          4.0210   -6.6610   24.4270 O.2   104  ALA104     -0.2715
    138  CB         3.7240   -7.6240   27.5180 C.3   104  ALA104      0.0334
    139  N          4.2020   -4.9810   25.9210 N.am  105  ASP105     -0.1971
    140  CA         5.1630   -4.2390   25.0930 C.3   105  ASP105      0.1709
    141  C          6.5670   -4.4640   25.6550 C.2   105  ASP105      0.2293
    142  O          6.7120   -5.0270   26.7410 O.2   105  ASP105     -0.2864
    143  CB         4.7990   -2.7520   24.9260 C.3   105  ASP105      0.1436
    144  CG         4.9050   -1.9510   26.2150 C.2   105  ASP105      0.3671
    145  OD1        5.7220   -2.2780   27.0890 O.co2 105  ASP105     -0.2456
    146  OD2        4.2070   -0.9230   26.3230 O.co2 105  ASP105     -0.2456
    147  N          7.3090   -3.2590   29.1480 N.3   108  ASN108     -0.1240
    148  CA         6.7640   -4.1430   30.1740 C.3   108  ASN108      0.1653
    149  C          7.6700   -5.3410   30.3980 C.2   108  ASN108      0.2266
    150  O          7.9880   -5.6870   31.5370 O.2   108  ASN108     -0.2867
    151  CB         5.3590   -4.6050   29.7990 C.3   108  ASN108      0.1155
    152  CG         4.2850   -3.6880   30.3420 C.2   108  ASN108      0.2627
    153  OD1        4.1290   -2.5530   29.8820 O.2   108  ASN108     -0.2716
    154  ND2        3.5510   -4.1650   31.3460 N.am  108  ASN108     -0.0877
    155  N          5.2090   -4.8480   20.3200 N.3   150  ALA150     -0.1245
    156  CA         4.3390   -5.6800   21.1520 C.3   150  ALA150      0.1562
    157  C          4.5930   -7.1540   20.8970 C.2   150  ALA150      0.2260
    158  O          4.8590   -7.5710   19.7610 O.2   150  ALA150     -0.2867
    159  CB         2.8740   -5.3220   20.8990 C.3   150  ALA150      0.0290
    160  N          4.2300   -1.5320   15.7650 N.3   160  LEU160     -0.1231
    161  CA         3.0580   -0.6520   15.6690 C.3   160  LEU160      0.1693
    162  C          3.4730    0.7810   15.3330 C.2   160  LEU160      0.2592
    163  O          4.5860    1.1960   15.6180 O.2   160  LEU160     -0.2718
    164  CB         2.3470   -0.5490   17.0310 C.3   160  LEU160      0.0284
    165  CG         1.8370   -1.7530   17.8220 C.3   160  LEU160      0.0019
    166  CD1        0.9670   -1.2530   18.9740 C.3   160  LEU160      0.0001
    167  CD2        1.0870   -2.7400   16.9580 C.3   160  LEU160      0.0001
    168  N          2.5090    1.5520   14.8320 N.am  161  ASP161     -0.1960
    169  CA         2.6340    2.9920   14.6460 C.3   161  ASP161      0.1840
    170  C          3.6970    3.4600   13.6590 C.2   161  ASP161      0.2622
    171  O          4.1950    4.5750   13.7820 O.2   161  ASP161     -0.2715
    172  CB         2.8330    3.6810   16.0030 C.3   161  ASP161      0.1450
    173  CG         1.6090    3.5670   16.9250 C.2   161  ASP161      0.3671
    174  OD1        0.5450    3.0850   16.4800 O.co2 161  ASP161     -0.2456
    175  OD2        1.7300    3.9400   18.1170 O.co2 161  ASP161     -0.2456
    176  N          4.0410    2.6070   12.7010 N.am  162  PHE162     -0.1974
    177  CA         5.0360    2.9390   11.6920 C.3   162  PHE162      0.1639
    178  C          4.4420    3.8780   10.6450 C.2   162  PHE162      0.2290
    179  O          3.2390    3.8540   10.3870 O.2   162  PHE162     -0.2864
    180  CB         5.5170    1.6670   10.9830 C.3   162  PHE162      0.0560
    181  CG         4.3980    0.8380   10.4120 C.ar  162  PHE162     -0.0200
    182  CD1        3.7440   -0.1080   11.1920 C.ar  162  PHE162     -0.0042
    183  CD2        3.9760    1.0310    9.1080 C.ar  162  PHE162     -0.0042
    184  CE1        2.6730   -0.8220   10.6800 C.ar  162  PHE162     -0.0003
    185  CE2        2.9230    0.3080    8.5810 C.ar  162  PHE162     -0.0003
    186  CZ         2.2680   -0.6180    9.3680 C.ar  162  PHE162     -0.0000
    187  N          3.8400    6.9670   10.5380 N.3   164  LEU164     -0.1245
    188  CA         2.9680    8.0680   10.9480 C.3   164  LEU164      0.1561
    189  C          3.7520    9.3370   11.2800 C.2   164  LEU164      0.2260
    190  O          3.3420   10.4340   10.9140 O.2   164  LEU164     -0.2867
    191  CB         2.0670    7.6440   12.1080 C.3   164  LEU164      0.0270
    192  CG         1.1580    6.4260   11.8690 C.3   164  LEU164      0.0019
    193  CD1        0.3310    6.1330   13.1030 C.3   164  LEU164      0.0001
    194  CD2        0.2660    6.5930   10.6310 C.3   164  LEU164      0.0001
@<TRIPOS>BOND
     1    65    66    1
     2    66    67    1
     3    66    69    1
     4    68    67    2
     5    72    70    1
     6    67    73   am
     7    70    69    1
     8    70    71    1
     9    75    76    2
    10    75    74    1
    11    73    74    1
    12    74    77    1
    13    56    57    1
    14    58    59    2
    15    58    57    1
    16    57    60    1
    17    77    78    1
    18   185   183   ar
    19   185   186   ar
    20   183   181   ar
    21   186   184   ar
    22    78    80    1
    23    78    79    1
    24    60    61    1
    25   179   178    2
    26   181   180    1
    27   181   182   ar
    28   187   188    1
    29   194   192    1
    30   178   177    1
    31   184   182   ar
    32    61    62    1
    33    96    94    1
    34   190   189    2
    35   188   189    1
    36   188   191    1
    37    84    83    2
    38   180   177    1
    39   177   176    1
    40   192   191    1
    41   192   193    1
    42    83    82    1
    43    62    63   ar
    44    62    64   ar
    45    94    95    1
    46    94    93    1
    47    81    82    1
    48   176   170   am
    49    82    85    1
    50    93    90    1
    51    87    85    1
    52    90    89    1
    53    90    91    1
    54   170   171    2
    55   170   169    1
    56    85    86    1
    57   112   110   ar
    58   112   113   ar
    59    91    92    2
    60   103   101    1
    61   169   168    1
    62   169   172    1
    63   110   109   ar
    64   168   162   am
    65    86    88    1
    66   113   111   ar
    67   162   163    2
    68   162   161    1
    69    98   101    1
    70    98    97    1
    71    98    99    1
    72   101   102    1
    73   161   160    1
    74   161   164    1
    75    55    54    1
    76    54    53    1
    77   172   173    1
    78   109   111   ar
    79   109   108    1
    80    50    49    2
    81   104    99   am
    82   104   105    1
    83   174   173   ar
    84    99   100    2
    85   173   175   ar
    86   167   165    1
    87   164   165    1
    88   108   105    1
    89    53    52    1
    90   105   106    1
    91    51    52    1
    92    51    48    1
    93    49    48    1
    94   165   166    1
    95    38    37    2
    96    47    48    1
    97    47    42   am
    98    45    44    1
    99   107   106    2
   100   106   114   am
   101    41    42    1
   102    41    44    1
   103    41    40    1
   104   128   129    1
   105   128   127    1
   106    42    43    2
   107    46    44    1
   108    37    40   am
   109    37    36    1
   110   158   157    2
   111   114   115    1
   112    35    36    1
   113   127   126    1
   114    39    36    1
   115   155   156    1
   116    27    26    2
   117   157   156    1
   118   159   156    1
   119    26    25    1
   120   115   116    1
   121   115   118    1
   122    18    16    1
   123   117   116    2
   124   116   122   am
   125   126   123    1
   126    24    25    1
   127   122   123    1
   128    17    16    1
   129   123   124    1
   130    25    28    1
   131   118   119    1
   132    16    13    1
   133    13    12    1
   134    13    14    1
   135   120   119    1
   136    28    29    1
   137    14    15    2
   138   119   121    1
   139   124   130   am
   140   124   125    2
   141   130   131    1
   142   137   136    2
   143    21    20    1
   144    21    22    2
   145    20    19    1
   146    20    23    1
   147    29    30    1
   148   143   140    1
   149   143   144    1
   150   140   141    1
   151   140   139    1
   152   136   139   am
   153   136   135    1
   154   131   132    1
   155     7     5    1
   156   141   142    2
   157    30    31    1
   158   134   132   am
   159   134   135    1
   160   144   146   ar
   161   144   145   ar
   162     6     5    1
   163     9     8    1
   164     9    10    1
   165   132   133    2
   166   135   138    1
   167     8     3   am
   168     5     2    1
   169    10    11    2
   170    31    32    2
   171     3     2    1
   172     3     4    2
   173     1     2    1
   174    32    33    1
   175    32    34    1
   176   147   148    1
   177   151   148    1
   178   151   152    1
   179   153   152    2
   180   148   149    1
   181   152   154   am
   182   149   150    2
