@<TRIPOS>MOLECULE
tmp/2rgkC00.pdb
 166 165 0 0 0
SMALL
GASTEIGER

@<TRIPOS>ATOM
      1  N         46.5580  120.8910   -1.9300 N.3    35  TRP35      -0.1241
      2  CA        48.0170  120.9890   -1.8830 C.3    35  TRP35       0.1605
      3  C         48.6280  119.7860   -1.1690 C.2    35  TRP35       0.2264
      4  O         48.5160  119.6630    0.0500 O.2    35  TRP35      -0.2867
      5  CB        48.3720  122.2800   -1.1370 C.3    35  TRP35       0.0550
      6  CG        49.8080  122.6560   -1.0920 C.ar   35  TRP35       0.0003
      7  CD1       50.8330  121.9360   -0.5470 C.ar   35  TRP35       0.0946
      8  CD2       50.3850  123.8730   -1.5830 C.ar   35  TRP35       0.0152
      9  NE1       52.0160  122.6330   -0.6690 N.ar   35  TRP35      -0.2442
     10  CE2       51.7680  123.8240   -1.3020 C.ar   35  TRP35       0.0810
     11  CE3       49.8670  125.0010   -2.2330 C.ar   35  TRP35       0.0012
     12  CZ2       52.6420  124.8620   -1.6540 C.ar   35  TRP35       0.0191
     13  CZ3       50.7380  126.0350   -2.5830 C.ar   35  TRP35       0.0001
     14  CH2       52.1080  125.9550   -2.2920 C.ar   35  TRP35       0.0015
     15  N         45.4310  127.6150   -9.8020 N.3    51  TRP51      -0.1241
     16  CA        46.4750  127.0430  -10.6280 C.3    51  TRP51       0.1605
     17  C         46.6530  125.5430  -10.4250 C.2    51  TRP51       0.2264
     18  O         46.8710  124.8150  -11.3920 O.2    51  TRP51      -0.2867
     19  CB        47.8140  127.7690  -10.4060 C.3    51  TRP51       0.0550
     20  CG        48.3530  127.7550   -8.9980 C.ar   51  TRP51       0.0003
     21  CD1       47.9800  128.5720   -7.9640 C.ar   51  TRP51       0.0946
     22  CD2       49.4150  126.9320   -8.4940 C.ar   51  TRP51       0.0152
     23  NE1       48.7510  128.3140   -6.8500 N.ar   51  TRP51      -0.2442
     24  CE2       49.6390  127.3130   -7.1480 C.ar   51  TRP51       0.0810
     25  CE3       50.2010  125.9110   -9.0490 C.ar   51  TRP51       0.0012
     26  CZ2       50.6190  126.7080   -6.3480 C.ar   51  TRP51       0.0191
     27  CZ3       51.1770  125.3060   -8.2550 C.ar   51  TRP51       0.0001
     28  CH2       51.3770  125.7090   -6.9170 C.ar   51  TRP51       0.0015
     29  N         45.9020  122.8280  -13.3030 N.3    55  ARG55      -0.1245
     30  CA        46.9890  121.9500  -13.7240 C.3    55  ARG55       0.1563
     31  C         46.5560  120.4960  -13.6550 C.2    55  ARG55       0.2260
     32  O         46.7390  119.7520  -14.6130 O.2    55  ARG55      -0.2867
     33  CB        48.2330  122.1510  -12.8600 C.3    55  ARG55       0.0307
     34  CG        48.9850  123.4260  -13.1450 C.3    55  ARG55       0.0489
     35  CD        50.2390  123.4960  -12.3020 C.3    55  ARG55       0.2205
     36  NE        50.9780  124.7340  -12.5360 N.pl3  55  ARG55      -0.0865
     37  CZ        52.1560  125.0200  -11.9880 C.cat  55  ARG55       0.5346
     38  NH1       52.7410  124.1540  -11.1670 N.pl3  55  ARG55       0.1354
     39  NH2       52.7500  126.1740  -12.2670 N.pl3  55  ARG55       0.1354
     40  N         44.1410  136.4880  -10.9200 N.3   109  GLN109     -0.1245
     41  CA        45.5050  136.3900  -11.4210 C.3   109  GLN109      0.1566
     42  C         45.6330  135.8130  -12.8270 C.2   109  GLN109      0.2260
     43  O         45.1000  134.7440  -13.1320 O.2   109  GLN109     -0.2867
     44  CB        46.3520  135.5970  -10.4200 C.3   109  GLN109      0.0367
     45  CG        46.6690  136.3980   -9.1590 C.3   109  GLN109      0.0905
     46  CD        47.2720  135.5600   -8.0480 C.2   109  GLN109      0.2608
     47  OE1       48.3080  134.9130   -8.2280 O.2   109  GLN109     -0.2717
     48  NE2       46.6270  135.5730   -6.8830 N.am  109  GLN109     -0.0878
     49  N         48.2900  134.4750  -14.7410 N.3   111  TYR111     -0.1241
     50  CA        48.8990  133.1740  -14.9670 C.3   111  TYR111      0.1605
     51  C         47.9790  132.0550  -14.5140 C.2   111  TYR111      0.2264
     52  O         47.9580  130.9840  -15.1180 O.2   111  TYR111     -0.2867
     53  CB        50.2640  133.0840  -14.2740 C.3   111  TYR111      0.0534
     54  CG        50.2380  132.7180  -12.8120 C.ar  111  TYR111     -0.0201
     55  CD1       50.3480  131.3900  -12.4050 C.ar  111  TYR111     -0.0009
     56  CD2       50.1480  133.7020  -11.8300 C.ar  111  TYR111     -0.0009
     57  CE1       50.3750  131.0520  -11.0550 C.ar  111  TYR111      0.0417
     58  CE2       50.1710  133.3770  -10.4810 C.ar  111  TYR111      0.0417
     59  CZ        50.2860  132.0520  -10.0970 C.ar  111  TYR111      0.1957
     60  OH        50.3100  131.7300   -8.7550 O.3   111  TYR111     -0.2866
     61  N         61.5250  135.6260   -2.2930 N.3   238  ARG238     -0.1231
     62  CA        60.6470  134.9920   -3.2680 C.3   238  ARG238      0.1694
     63  C         59.4220  135.8080   -3.6710 C.2   238  ARG238      0.2592
     64  O         59.0470  136.7750   -3.0030 O.2   238  ARG238     -0.2718
     65  CB        60.2190  133.6170   -2.7620 C.3   238  ARG238      0.0321
     66  CG        60.8790  132.4630   -3.5020 C.3   238  ARG238      0.0489
     67  CD        60.2380  132.2460   -4.8730 C.3   238  ARG238      0.2205
     68  NE        60.4490  133.3540   -5.8060 N.pl3 238  ARG238     -0.0865
     69  CZ        59.8690  133.4400   -7.0030 C.cat 238  ARG238      0.5346
     70  NH1       60.1150  134.4760   -7.7960 N.pl3 238  ARG238      0.1354
     71  NH2       59.0290  132.4920   -7.4040 N.pl3 238  ARG238      0.1354
     72  N         58.7990  135.3690   -4.7630 N.am  239  PHE239     -0.1962
     73  CA        57.6470  136.0140   -5.3920 C.3   239  PHE239      0.1771
     74  C         58.2330  137.1730   -6.1780 C.2   239  PHE239      0.2619
     75  O         58.6220  138.1960   -5.6070 O.2   239  PHE239     -0.2715
     76  CB        56.6180  136.5340   -4.3860 C.3   239  PHE239      0.0574
     77  CG        55.5040  137.3190   -5.0310 C.ar  239  PHE239     -0.0200
     78  CD1       55.6200  138.6980   -5.2220 C.ar  239  PHE239     -0.0042
     79  CD2       54.3720  136.6720   -5.5180 C.ar  239  PHE239     -0.0042
     80  CE1       54.6250  139.4190   -5.8940 C.ar  239  PHE239     -0.0003
     81  CE2       53.3700  137.3840   -6.1930 C.ar  239  PHE239     -0.0003
     82  CZ        53.4990  138.7580   -6.3810 C.ar  239  PHE239     -0.0000
     83  N         58.2980  136.9950   -7.4930 N.am  240  ARG240     -0.1977
     84  CA        58.8850  137.9880   -8.3790 C.3   240  ARG240      0.1597
     85  C         60.3120  138.2190   -7.9320 C.2   240  ARG240      0.2287
     86  O         60.7050  139.3270   -7.5910 O.2   240  ARG240     -0.2864
     87  CB        58.0890  139.2920   -8.3560 C.3   240  ARG240      0.0334
     88  CG        56.7290  139.1280   -8.9840 C.3   240  ARG240      0.0492
     89  CD        56.0360  140.4380   -9.1980 C.3   240  ARG240      0.2205
     90  NE        54.6760  140.2090   -9.6630 N.pl3 240  ARG240     -0.0865
     91  CZ        53.7500  141.1540   -9.7480 C.cat 240  ARG240      0.5346
     92  NH1       54.0440  142.4020   -9.4020 N.pl3 240  ARG240      0.1354
     93  NH2       52.5280  140.8440  -10.1590 N.pl3 240  ARG240      0.1354
     94  N         68.2170  128.3680   -9.1170 N.3   300  TYR300     -0.1241
     95  CA        66.9160  128.9840   -9.3160 C.3   300  TYR300      0.1605
     96  C         66.9990  130.3880   -9.9170 C.2   300  TYR300      0.2264
     97  O         66.2810  130.7170  -10.8630 O.2   300  TYR300     -0.2867
     98  CB        66.1700  129.0390   -7.9820 C.3   300  TYR300      0.0534
     99  CG        64.7360  129.4900   -8.1000 C.ar  300  TYR300     -0.0201
    100  CD1       63.8150  128.7570   -8.8520 C.ar  300  TYR300     -0.0009
    101  CD2       64.3000  130.6590   -7.4750 C.ar  300  TYR300     -0.0009
    102  CE1       62.4970  129.1780   -8.9830 C.ar  300  TYR300      0.0417
    103  CE2       62.9830  131.0900   -7.5990 C.ar  300  TYR300      0.0417
    104  CZ        62.0860  130.3470   -8.3560 C.ar  300  TYR300      0.1957
    105  OH        60.7850  130.7820   -8.5020 O.3   300  TYR300     -0.2866
    106  N         62.9170  121.8380   -8.1770 N.3   315  ARG315     -0.1231
    107  CA        62.6520  120.7090   -9.0540 C.3   315  ARG315      0.1694
    108  C         62.3160  121.0150  -10.5070 C.2   315  ARG315      0.2592
    109  O         62.9950  120.5400  -11.4150 O.2   315  ARG315     -0.2718
    110  CB        61.5320  119.8590   -8.4570 C.3   315  ARG315      0.0321
    111  CG        61.1900  118.6140   -9.2590 C.3   315  ARG315      0.0489
    112  CD        60.1560  117.7810   -8.5240 C.3   315  ARG315      0.2205
    113  NE        58.7910  118.1390   -8.8760 N.pl3 315  ARG315     -0.0865
    114  CZ        57.7290  117.8940   -8.1130 C.cat 315  ARG315      0.5346
    115  NH1       57.8590  117.2950   -6.9320 N.pl3 315  ARG315      0.1354
    116  NH2       56.5220  118.2220   -8.5520 N.pl3 315  ARG315      0.1354
    117  N         61.2740  121.8100  -10.7280 N.am  316  TRP316     -0.1976
    118  CA        60.8310  122.1020  -12.0890 C.3   316  TRP316      0.1640
    119  C         61.8450  122.6620  -13.0980 C.2   316  TRP316      0.2290
    120  O         61.8010  122.3100  -14.2780 O.2   316  TRP316     -0.2864
    121  CB        59.5700  122.9880  -12.0620 C.3   316  TRP316      0.0576
    122  CG        59.7690  124.3890  -11.5730 C.ar  316  TRP316      0.0006
    123  CD1       59.6080  124.8450  -10.2990 C.ar  316  TRP316      0.0946
    124  CD2       60.1790  125.5200  -12.3540 C.ar  316  TRP316      0.0152
    125  NE1       59.8900  126.1870  -10.2340 N.ar  316  TRP316     -0.2442
    126  CE2       60.2460  126.6280  -11.4810 C.ar  316  TRP316      0.0810
    127  CE3       60.4960  125.7040  -13.7070 C.ar  316  TRP316      0.0012
    128  CZ2       60.6190  127.9080  -11.9170 C.ar  316  TRP316      0.0191
    129  CZ3       60.8670  126.9830  -14.1430 C.ar  316  TRP316      0.0001
    130  CH2       60.9250  128.0640  -13.2470 C.ar  316  TRP316      0.0015
    131  N         60.7160  118.7010   -3.8660 N.3   362  GLN362     -0.1245
    132  CA        60.4120  119.9860   -4.4800 C.3   362  GLN362      0.1566
    133  C         61.6200  120.9050   -4.6200 C.2   362  GLN362      0.2260
    134  O         61.8390  121.4930   -5.6810 O.2   362  GLN362     -0.2867
    135  CB        59.3180  120.6850   -3.6690 C.3   362  GLN362      0.0367
    136  CG        59.0020  122.1120   -4.0880 C.3   362  GLN362      0.0905
    137  CD        58.5140  122.2140   -5.5220 C.2   362  GLN362      0.2608
    138  OE1       57.9990  121.2420   -6.0890 O.2   362  GLN362     -0.2717
    139  NE2       58.6570  123.3990   -6.1130 N.am  362  GLN362     -0.0878
    140  N         53.1940  119.8760   -4.0660 N.3   375  GLN375     -0.1231
    141  CA        51.9620  120.3720   -4.6590 C.3   375  GLN375      0.1698
    142  C         51.7890  120.2400   -6.1630 C.2   375  GLN375      0.2592
    143  O         50.7170  120.5480   -6.6870 O.2   375  GLN375     -0.2718
    144  CB        51.7830  121.8500   -4.3030 C.3   375  GLN375      0.0381
    145  CG        52.7860  122.7750   -4.9820 C.3   375  GLN375      0.0905
    146  CD        54.1050  122.8560   -4.2450 C.2   375  GLN375      0.2608
    147  OE1       54.4080  122.0160   -3.4020 O.2   375  GLN375     -0.2717
    148  NE2       54.9040  123.8700   -4.5640 N.am  375  GLN375     -0.0878
    149  N         52.8110  119.7840   -6.8710 N.am  376  ASP376     -0.1974
    150  CA        52.6900  119.7010   -8.3200 C.3   376  ASP376      0.1709
    151  C         53.2190  118.4340   -8.9670 C.2   376  ASP376      0.2293
    152  O         54.1350  117.7980   -8.4570 O.2   376  ASP376     -0.2864
    153  CB        53.4000  120.9110   -8.9460 C.3   376  ASP376      0.1436
    154  CG        53.3170  120.9220  -10.4620 C.2   376  ASP376      0.3671
    155  OD1       52.2020  121.1030  -11.0000 O.co2 376  ASP376     -0.2456
    156  OD2       54.3690  120.7460  -11.1150 O.co2 376  ASP376     -0.2456
    157  N         54.4040  119.7430  -14.0630 N.3   379  HIS379     -0.1241
    158  CA        55.7030  119.9350  -14.7050 C.3   379  HIS379      0.1621
    159  C         56.3210  118.6240  -15.1880 C.2   379  HIS379      0.2264
    160  O         56.9020  118.5590  -16.2750 O.2   379  HIS379     -0.2867
    161  CB        56.6890  120.6020  -13.7400 C.3   379  HIS379      0.0745
    162  CG        56.5870  122.0950  -13.6960 C.ar  379  HIS379      0.0817
    163  ND1       56.9840  122.8990  -14.7420 N.ar  379  HIS379     -0.2268
    164  CD2       56.1420  122.9310  -12.7270 C.ar  379  HIS379      0.1154
    165  CE1       56.7870  124.1660  -14.4210 C.ar  379  HIS379      0.1986
    166  NE2       56.2770  124.2120  -13.2040 N.ar  379  HIS379     -0.2212
@<TRIPOS>BOND
     1   160   159    2
     2   159   158    1
     3    52    51    2
     4    50    49    1
     5    50    51    1
     6    50    53    1
     7   163   165   ar
     8   163   162   ar
     9   158   157    1
    10   158   161    1
    11    32    31    2
    12   165   166   ar
    13   120   119    2
    14    53    54    1
    15   129   127   ar
    16   129   130   ar
    17   161   162    1
    18    30    31    1
    19    30    29    1
    20    30    33    1
    21   127   124   ar
    22   162   164   ar
    23   130   128   ar
    24   166   164   ar
    25    34    33    1
    26    34    35    1
    27    43    42    2
    28   119   118    1
    29    42    41    1
    30    54    55   ar
    31    54    56   ar
    32    36    35    1
    33    36    37    2
    34    55    57   ar
    35   124   122   ar
    36   124   126   ar
    37    39    37    1
    38   118   121    1
    39   118   117    1
    40   121   122    1
    41    37    38    1
    42   128   126   ar
    43    56    58   ar
    44   122   123   ar
    45   126   125   ar
    46    41    40    1
    47    41    44    1
    48   109   108    2
    49    18    17    2
    50   156   154   ar
    51    57    59   ar
    52   155   154   ar
    53    97    96    2
    54   117   108   am
    55    16    17    1
    56    16    19    1
    57    16    15    1
    58   108   107    1
    59    58    59   ar
    60   154   153    1
    61    44    45    1
    62    19    20    1
    63   123   125   ar
    64    93    91    1
    65    59    60    1
    66    96    95    1
    67    91    90    2
    68    91    92    1
    69    90    89    1
    70    95    94    1
    71    95    98    1
    72   111   112    1
    73   111   110    1
    74    89    88    1
    75    45    46    1
    76   107   110    1
    77   107   106    1
    78    25    22   ar
    79    25    27   ar
    80    20    22   ar
    81    20    21   ar
    82    88    87    1
    83   102   100   ar
    84   102   104   ar
    85   151   152    2
    86   151   150    1
    87   153   150    1
    88   113   112    1
    89   113   114    2
    90   100    99   ar
    91   116   114    1
    92   105   104    1
    93    22    24   ar
    94    84    87    1
    95    84    85    1
    96    84    83    1
    97   104   103   ar
    98   150   149    1
    99    27    28   ar
   100    47    46    2
   101   114   115    1
   102    99    98    1
   103    99   101   ar
   104    46    48   am
   105    21    23   ar
   106    85    86    2
   107    70    69    1
   108   103   101   ar
   109    83    74   am
   110    71    69    1
   111    24    23   ar
   112    24    26   ar
   113    69    68    2
   114    28    26   ar
   115   149   142   am
   116   143   142    2
   117    82    81   ar
   118    82    80   ar
   119    81    79   ar
   120    74    75    2
   121    74    73    1
   122   142   141    1
   123   139   137   am
   124   138   137    2
   125    80    78   ar
   126    68    67    1
   127   134   133    2
   128   137   136    1
   129    79    77   ar
   130    73    72    1
   131    73    76    1
   132    78    77   ar
   133    77    76    1
   134   145   144    1
   135   145   146    1
   136    67    66    1
   137    72    63   am
   138   141   144    1
   139   141   140    1
   140   133   132    1
   141   148   146   am
   142   132   131    1
   143   132   135    1
   144   146   147    2
   145   136   135    1
   146    63    62    1
   147    63    64    2
   148    66    65    1
   149    62    65    1
   150    62    61    1
   151    13    14   ar
   152    13    11   ar
   153    14    12   ar
   154    11     8   ar
   155     1     2    1
   156     2     3    1
   157     2     5    1
   158    12    10   ar
   159     8    10   ar
   160     8     6   ar
   161    10     9   ar
   162     3     4    2
   163     5     6    1
   164     6     7   ar
   165     9     7   ar
