@<TRIPOS>MOLECULE
tmp/2rgmA00.pdb
 142 142 0 0 0
SMALL
GASTEIGER

@<TRIPOS>ATOM
      1  N          3.1650   -2.5330   26.6670 N.3    24  GLN24      -0.1245
      2  CA         2.3400   -1.3410   26.8520 C.3    24  GLN24       0.1566
      3  C          2.2590   -0.4420   25.6230 C.2    24  GLN24       0.2260
      4  O          1.2860    0.3020   25.4890 O.2    24  GLN24      -0.2867
      5  CB         2.7910   -0.5710   28.0840 C.3    24  GLN24       0.0367
      6  CG         2.6290   -1.3900   29.3540 C.3    24  GLN24       0.0905
      7  CD         3.0990   -0.6030   30.5660 C.2    24  GLN24       0.2608
      8  OE1        4.2710   -0.6580   30.9280 O.2    24  GLN24      -0.2717
      9  NE2        2.2010    0.1760   31.1540 N.am   24  GLN24      -0.0878
     10  N         14.3650    4.6470   27.0710 N.3    81  ARG81      -0.1245
     11  CA        14.3220    3.3700   27.7830 C.3    81  ARG81       0.1563
     12  C         13.1360    2.5840   27.2450 C.2    81  ARG81       0.2260
     13  O         12.0020    3.0370   27.3090 O.2    81  ARG81      -0.2867
     14  CB        14.1890    3.5740   29.3110 C.3    81  ARG81       0.0307
     15  CG        14.1760    2.2390   30.0710 C.3    81  ARG81       0.0489
     16  CD        14.1670    2.3720   31.6130 C.3    81  ARG81       0.2205
     17  NE        13.7340    1.0750   32.1220 N.pl3  81  ARG81      -0.0865
     18  CZ        12.6980    0.8680   32.9380 C.cat  81  ARG81       0.5346
     19  NH1       12.0210    1.8810   33.4670 N.pl3  81  ARG81       0.1354
     20  NH2       12.3680   -0.3710   33.2720 N.pl3  81  ARG81       0.1354
     21  N          9.8690   -6.9750   31.2330 N.3   125  HIS125     -0.1226
     22  CA         8.9460   -5.9870   31.8080 C.3   125  HIS125      0.1752
     23  C          7.5670   -6.6390   31.9400 C.2   125  HIS125      0.2596
     24  O          6.6450   -6.3720   31.1650 O.2   125  HIS125     -0.2718
     25  CB         8.9030   -4.7420   30.9210 C.3   125  HIS125      0.0759
     26  CG         8.4600   -3.4910   31.6240 C.ar  125  HIS125      0.0818
     27  ND1        7.2270   -3.3530   32.2250 N.ar  125  HIS125     -0.2268
     28  CD2        9.0930   -2.3020   31.7900 C.ar  125  HIS125      0.1154
     29  CE1        7.1130   -2.1280   32.7210 C.ar  125  HIS125      0.1986
     30  NE2        8.2330   -1.4770   32.4770 N.ar  125  HIS125     -0.2212
     31  N          7.4740   -7.5510   32.9120 N.am  126  TYR126     -0.1976
     32  CA         6.2410   -8.2520   33.3200 C.3   126  TYR126      0.1639
     33  C          5.7180   -9.2440   32.3050 C.2   126  TYR126      0.2290
     34  O          4.5940   -9.7550   32.4710 O.2   126  TYR126     -0.2864
     35  CB         5.0750   -7.3050   33.6510 C.3   126  TYR126      0.0560
     36  CG         5.3240   -6.1880   34.6200 C.ar  126  TYR126     -0.0198
     37  CD1        4.6900   -4.9760   34.4330 C.ar  126  TYR126     -0.0009
     38  CD2        6.1700   -6.3270   35.7160 C.ar  126  TYR126     -0.0009
     39  CE1        4.8670   -3.9250   35.2990 C.ar  126  TYR126      0.0417
     40  CE2        6.3600   -5.2560   36.6100 C.ar  126  TYR126      0.0417
     41  CZ         5.6990   -4.0660   36.3700 C.ar  126  TYR126      0.1957
     42  OH         5.8320   -2.9800   37.1910 O.3   126  TYR126     -0.2866
     43  N         12.4740   -5.1730   35.3450 N.3   170  ASN170     -0.1225
     44  CA        11.6860   -4.0470   35.8750 C.3   170  ASN170      0.1785
     45  C         10.8250   -4.4620   37.0760 C.2   170  ASN170      0.2597
     46  O          9.8630   -5.2270   36.9440 O.2   170  ASN170     -0.2718
     47  CB        10.7580   -3.4960   34.7790 C.3   170  ASN170      0.1169
     48  CG         9.9640   -2.2860   35.2410 C.2   170  ASN170      0.2627
     49  OD1       10.4630   -1.1760   35.2270 O.2   170  ASN170     -0.2716
     50  ND2        8.6990   -2.5030   35.6220 N.am  170  ASN170     -0.0877
     51  N         11.1910   -3.9600   38.2550 N.am  171  GLU171     -0.1979
     52  CA        10.3510   -4.0520   39.4690 C.3   171  GLU171      0.1602
     53  C         10.0030   -5.4860   39.9060 C.2   171  GLU171      0.2287
     54  O          8.8200   -5.8800   39.9450 O.2   171  GLU171     -0.2864
     55  CB         9.0730   -3.2170   39.3260 C.3   171  GLU171      0.0415
     56  CG         9.3170   -1.7800   38.9560 C.3   171  GLU171      0.1163
     57  CD         8.0340   -1.0200   38.7750 C.2   171  GLU171      0.3649
     58  OE1        6.9700   -1.6300   38.4700 O.co2 171  GLU171     -0.2457
     59  OE2        8.0850    0.1980   38.9320 O.co2 171  GLU171     -0.2457
     60  N          7.5890    7.3710   42.5260 N.3   310  TYR310     -0.1241
     61  CA         6.3640    8.1500   42.3360 C.3   310  TYR310      0.1605
     62  C          5.8870    8.9300   43.5270 C.2   310  TYR310      0.2264
     63  O          5.4130   10.0360   43.3570 O.2   310  TYR310     -0.2867
     64  CB         5.1780    7.2780   41.9320 C.3   310  TYR310      0.0534
     65  CG         5.2640    6.7440   40.5440 C.ar  310  TYR310     -0.0201
     66  CD1        5.6480    5.4230   40.3230 C.ar  310  TYR310     -0.0009
     67  CD2        4.9970    7.5570   39.4410 C.ar  310  TYR310     -0.0009
     68  CE1        5.7490    4.9110   39.0390 C.ar  310  TYR310      0.0417
     69  CE2        5.1040    7.0500   38.1480 C.ar  310  TYR310      0.0417
     70  CZ         5.4780    5.7320   37.9570 C.ar  310  TYR310      0.1957
     71  OH         5.5520    5.2440   36.6690 O.3   310  TYR310     -0.2866
     72  N         -3.1970    5.3080   44.1700 N.3   353  TRP353     -0.1241
     73  CA        -1.9560    5.1480   44.9510 C.3   353  TRP353      0.1605
     74  C         -0.9730    6.2930   44.7340 C.2   353  TRP353      0.2264
     75  O          0.0270    6.4060   45.4500 O.2   353  TRP353     -0.2867
     76  CB        -1.2860    3.8120   44.5930 C.3   353  TRP353      0.0550
     77  CG        -1.0480    3.6290   43.1280 C.ar  353  TRP353      0.0003
     78  CD1       -1.8740    2.9850   42.2420 C.ar  353  TRP353      0.0946
     79  CD2        0.0700    4.1120   42.3550 C.ar  353  TRP353      0.0152
     80  NE1       -1.3360    3.0260   40.9730 N.ar  353  TRP353     -0.2442
     81  CE2       -0.1530    3.7170   41.0060 C.ar  353  TRP353      0.0810
     82  CE3        1.2340    4.8360   42.6660 C.ar  353  TRP353      0.0012
     83  CZ2        0.7540    4.0080   39.9730 C.ar  353  TRP353      0.0191
     84  CZ3        2.1380    5.1360   41.6210 C.ar  353  TRP353      0.0001
     85  CH2        1.8800    4.7210   40.2950 C.ar  353  TRP353      0.0015
     86  N         11.8320    5.8050   36.1350 N.3   381  GLU381     -0.1245
     87  CA        10.4340    6.0710   35.9390 C.3   381  GLU381      0.1567
     88  C         10.1030    7.1060   36.9520 C.2   381  GLU381      0.2260
     89  O         10.3800    7.0150   38.1340 O.2   381  GLU381     -0.2867
     90  CB         9.7290    4.7870   36.3300 C.3   381  GLU381      0.0388
     91  CG         8.4200    4.5430   35.6720 C.3   381  GLU381      0.1160
     92  CD         7.7780    3.3620   36.3650 C.2   381  GLU381      0.3649
     93  OE1        7.8570    3.1540   37.5570 O.co2 381  GLU381     -0.2457
     94  OE2        7.0150    2.4810   35.5510 O.co2 381  GLU381     -0.2457
     95  N          8.2360    8.5700   32.8390 N.3   428  TRP428     -0.1241
     96  CA         7.2010    7.5960   32.4460 C.3   428  TRP428      0.1605
     97  C          5.9240    8.4140   32.1480 C.2   428  TRP428      0.2264
     98  O          5.3870    9.0340   33.0670 O.2   428  TRP428     -0.2867
     99  CB         6.9060    6.5610   33.5600 C.3   428  TRP428      0.0550
    100  CG         5.8480    5.6180   33.0280 C.ar  428  TRP428      0.0003
    101  CD1        4.4950    5.8110   33.0480 C.ar  428  TRP428      0.0946
    102  CD2        6.0640    4.4140   32.2610 C.ar  428  TRP428      0.0152
    103  NE1        3.8530    4.7950   32.3610 N.ar  428  TRP428     -0.2442
    104  CE2        4.7920    3.9320   31.8650 C.ar  428  TRP428      0.0810
    105  CE3        7.1990    3.6880   31.8980 C.ar  428  TRP428      0.0012
    106  CZ2        4.6330    2.7520   31.1110 C.ar  428  TRP428      0.0191
    107  CZ3        7.0430    2.5180   31.1470 C.ar  428  TRP428      0.0001
    108  CH2        5.7640    2.0710   30.7560 C.ar  428  TRP428      0.0015
    109  N         -2.1730    0.7770   30.4810 N.3   435  GLU435     -0.1231
    110  CA        -1.8230    0.8460   31.9010 C.3   435  GLU435      0.1699
    111  C         -2.3410   -0.3610   32.6760 C.2   435  GLU435      0.2592
    112  O         -3.0850   -0.2350   33.6750 O.2   435  GLU435     -0.2718
    113  CB        -2.2930    2.1770   32.5140 C.3   435  GLU435      0.0402
    114  CG        -1.9880    2.4000   34.0510 C.3   435  GLU435      0.1161
    115  CD        -0.5170    2.2660   34.4300 C.2   435  GLU435      0.3649
    116  OE1        0.3840    2.3790   33.5660 O.co2 435  GLU435     -0.2457
    117  OE2       -0.2510    2.0360   35.6260 O.co2 435  GLU435     -0.2457
    118  N         -1.9120   -1.5320   32.2290 N.am  436  TRP436     -0.1976
    119  CA        -2.1620   -2.7910   32.9480 C.3   436  TRP436      0.1640
    120  C         -3.6360   -2.9610   33.3670 C.2   436  TRP436      0.2290
    121  O         -4.5050   -2.8890   32.5090 O.2   436  TRP436     -0.2864
    122  CB        -1.1830   -2.9290   34.1230 C.3   436  TRP436      0.0576
    123  CG         0.2720   -2.7870   33.6950 C.ar  436  TRP436      0.0006
    124  CD1        1.1620   -1.8370   34.1340 C.ar  436  TRP436      0.0946
    125  CD2        0.9910   -3.6030   32.7600 C.ar  436  TRP436      0.0152
    126  NE1        2.3990   -2.0330   33.5520 N.ar  436  TRP436     -0.2442
    127  CE2        2.3210   -3.1080   32.7050 C.ar  436  TRP436      0.0810
    128  CE3        0.6550   -4.7270   31.9890 C.ar  436  TRP436      0.0012
    129  CZ2        3.2980   -3.6800   31.8910 C.ar  436  TRP436      0.0191
    130  CZ3        1.6320   -5.3040   31.1830 C.ar  436  TRP436      0.0001
    131  CH2        2.9430   -4.7740   31.1350 C.ar  436  TRP436      0.0015
    132  N         -0.5740    8.3340   31.1590 N.3   444  PHE444     -0.1241
    133  CA         0.7110    8.7560   31.7690 C.3   444  PHE444      0.1605
    134  C          1.6370    9.5160   30.8060 C.2   444  PHE444      0.2264
    135  O          2.7360    9.9320   31.1890 O.2   444  PHE444     -0.2867
    136  CB         1.5040    7.5400   32.2980 C.3   444  PHE444      0.0534
    137  CG         1.1680    7.1210   33.7130 C.ar  444  PHE444     -0.0203
    138  CD1        1.8360    7.6860   34.8080 C.ar  444  PHE444     -0.0042
    139  CD2        0.2120    6.1250   33.9400 C.ar  444  PHE444     -0.0042
    140  CE1        1.5590    7.2770   36.1110 C.ar  444  PHE444     -0.0003
    141  CE2       -0.0740    5.6920   35.2420 C.ar  444  PHE444     -0.0003
    142  CZ         0.6060    6.2710   36.3340 C.ar  444  PHE444     -0.0000
@<TRIPOS>BOND
     1     4     3    2
     2     3     2    1
     3     1     2    1
     4     2     5    1
     5    10    11    1
     6    12    13    2
     7    12    11    1
     8    11    14    1
     9     5     6    1
    10    14    15    1
    11     6     7    1
    12    15    16    1
    13   109   110    1
    14     7     8    2
    15     7     9   am
    16   108   106   ar
    17   108   107   ar
    18   134   135    2
    19   134   133    1
    20    25    26    1
    21    25    22    1
    22   106   104   ar
    23   131   130   ar
    24   131   129   ar
    25   107   105   ar
    26   132   133    1
    27    24    23    2
    28   130   128   ar
    29    21    22    1
    30    16    17    1
    31    26    28   ar
    32    26    27   ar
    33   133   136    1
    34    28    30   ar
    35    22    23    1
    36   104   102   ar
    37   104   103   ar
    38   129   127   ar
    39   105   102   ar
    40   110   113    1
    41   110   111    1
    42    23    31   am
    43   128   125   ar
    44    17    18    2
    45    97    96    1
    46    97    98    2
    47    27    29   ar
    48   118   111   am
    49   118   119    1
    50   102   100   ar
    51   136   137    1
    52    33    34    2
    53    33    32    1
    54   103   101   ar
    55    96    95    1
    56    96    99    1
    57    30    29   ar
    58   121   120    2
    59   113   114    1
    60   111   112    2
    61   127   125   ar
    62   127   126   ar
    63   125   123   ar
    64    31    32    1
    65    18    20    1
    66    18    19    1
    67   119   120    1
    68   119   122    1
    69   100   101   ar
    70   100    99    1
    71    32    35    1
    72   126   124   ar
    73   116   115   ar
    74    35    36    1
    75   123   122    1
    76   123   124   ar
    77   137   139   ar
    78   137   138   ar
    79   139   141   ar
    80   114   115    1
    81   115   117   ar
    82    37    36   ar
    83    37    39   ar
    84    36    38   ar
    85    47    48    1
    86    47    44    1
    87   138   140   ar
    88    49    48    2
    89    48    50   am
    90   141   142   ar
    91    39    41   ar
    92    43    44    1
    93    94    92   ar
    94    91    90    1
    95    91    92    1
    96    38    40   ar
    97    44    45    1
    98    87    86    1
    99    87    90    1
   100    87    88    1
   101   140   142   ar
   102    92    93   ar
   103    41    40   ar
   104    41    42    1
   105    71    70    1
   106    46    45    2
   107    88    89    2
   108    45    51   am
   109    70    69   ar
   110    70    68   ar
   111    69    67   ar
   112    51    52    1
   113    58    57   ar
   114    57    59   ar
   115    57    56    1
   116    56    55    1
   117    68    66   ar
   118    55    52    1
   119    67    65   ar
   120    52    53    1
   121    53    54    2
   122    83    85   ar
   123    83    81   ar
   124    85    84   ar
   125    66    65   ar
   126    65    64    1
   127    80    81   ar
   128    80    78   ar
   129    81    79   ar
   130    84    82   ar
   131    64    61    1
   132    78    77   ar
   133    61    60    1
   134    61    62    1
   135    79    82   ar
   136    79    77   ar
   137    77    76    1
   138    63    62    2
   139    72    73    1
   140    76    73    1
   141    74    73    1
   142    74    75    2
