@<TRIPOS>MOLECULE
tmp/2rgpA00.pdb
 192 178 0 0 0
SMALL
GASTEIGER

@<TRIPOS>ATOM
      1  N         17.8840   26.1210   88.3530 N.3    17  LEU17      -0.1231
      2  CA        17.9240   27.2470   87.4380 C.3    17  LEU17       0.1693
      3  C         19.3870   27.5590   87.1460 C.2    17  LEU17       0.2593
      4  O         19.8180   27.5260   85.9960 O.2    17  LEU17      -0.2718
      5  CB        17.2330   28.4670   88.0380 C.3    17  LEU17       0.0284
      6  CG        15.7070   28.4390   87.9740 C.3    17  LEU17       0.0019
      7  CD1       15.1700   29.7710   88.4410 C.3    17  LEU17       0.0001
      8  CD2       15.2480   28.1660   86.5350 C.3    17  LEU17       0.0001
      9  N         20.1570   27.8360   88.1920 N.am   18  GLY18      -0.1942
     10  CA        21.5580   28.1420   87.9890 C.3    18  GLY18       0.2014
     11  C         22.3420   28.3500   89.2660 C.2    18  GLY18       0.2640
     12  O         21.7750   28.4830   90.3530 O.2    18  GLY18      -0.2714
     13  N         23.6600   28.3870   89.1290 N.am   19  SER19      -0.1935
     14  CA        24.5430   28.5760   90.2670 C.3    19  SER19       0.2055
     15  C         24.8780   30.0510   90.4520 C.2    19  SER19       0.2643
     16  O         25.6380   30.6300   89.6720 O.2    19  SER19      -0.2714
     17  CB        25.8240   27.7620   90.0680 C.3    19  SER19       0.2130
     18  OG        25.5180   26.3850   89.8980 O.3    19  SER19      -0.2179
     19  N         24.2970   30.6560   91.4840 N.am   20  GLY20      -0.1954
     20  CA        24.5510   32.0580   91.7600 C.3    20  GLY20       0.1869
     21  C         25.8760   32.2470   92.4730 C.2    20  GLY20       0.2309
     22  O         26.6910   31.3210   92.5420 O.2    20  GLY20      -0.2863
     23  N         20.2000   28.5110   92.7560 N.3    25  VAL25      -0.1245
     24  CA        18.7860   28.8500   92.6280 C.3    25  VAL25       0.1561
     25  C         18.0470   27.7300   91.9100 C.2    25  VAL25       0.2260
     26  O         18.4910   27.2500   90.8670 O.2    25  VAL25      -0.2867
     27  CB        18.5690   30.1650   91.8340 C.3    25  VAL25       0.0252
     28  CG1       17.0740   30.4590   91.7190 C.3    25  VAL25       0.0019
     29  CG2       19.2880   31.3190   92.5150 C.3    25  VAL25       0.0019
     30  N         10.9830   30.5520   92.8540 N.3    38  ALA38      -0.1245
     31  CA        12.4080   30.3590   92.6600 C.3    38  ALA38       0.1562
     32  C         12.8950   30.2200   94.0870 C.2    38  ALA38       0.2260
     33  O         12.5180   31.0130   94.9590 O.2    38  ALA38      -0.2867
     34  CB        13.0360   31.5720   91.9940 C.3    38  ALA38       0.0290
     35  N         16.3320   29.8880   96.4390 N.3    40  LYS40      -0.1245
     36  CA        17.7800   30.0200   96.5220 C.3    40  LYS40       0.1561
     37  C         18.2660   29.4190   97.8310 C.2    40  LYS40       0.2260
     38  O         17.8250   29.8230   98.9100 O.2    40  LYS40      -0.2867
     39  CB        18.2220   31.4900   96.4460 C.3    40  LYS40       0.0271
     40  CG        19.7240   31.6700   96.7230 C.3    40  LYS40       0.0035
     41  CD        20.2380   33.1000   96.5210 C.3    40  LYS40       0.0206
     42  CE        20.3990   33.4270   95.0500 C.3    40  LYS40       0.1093
     43  NZ        21.1850   34.6710   94.8090 N.3    40  LYS40      -0.1314
     44  N         14.0310   42.2550  103.0940 N.3    56  MET56      -0.1245
     45  CA        13.8350   41.7450  101.7370 C.3    56  MET56       0.1570
     46  C         12.3700   41.4470  101.4300 C.2    56  MET56       0.2261
     47  O         11.9470   41.5120  100.2730 O.2    56  MET56      -0.2867
     48  CB        14.6710   40.4720  101.5160 C.3    56  MET56       0.0387
     49  CG        16.1890   40.6820  101.5370 C.3    56  MET56       0.0595
     50  SD        17.1290   39.1140  101.4690 S.3    56  MET56      -0.1393
     51  CE        17.8310   39.0950  103.0920 C.3    56  MET56       0.0692
     52  N         12.0060   42.8780   93.2520 N.3    65  CYS65      -0.1221
     53  CA        11.5220   41.5710   93.6800 C.3    65  CYS65       0.1808
     54  C         11.3960   41.5380   95.1790 C.2    65  CYS65       0.2601
     55  O         12.1980   42.1280   95.8960 O.2    65  CYS65      -0.2717
     56  CB        12.4580   40.4430   93.2360 C.3    65  CYS65       0.0970
     57  SG        12.4930   40.1790   91.4640 S.3    65  CYS65      -0.0800
     58  N         10.3810   40.8310   95.6510 N.am   66  ARG66      -0.1965
     59  CA        10.1280   40.7120   97.0740 C.3    66  ARG66       0.1729
     60  C         10.2850   39.2650   97.5370 C.2    66  ARG66       0.2616
     61  O          9.8590   38.3290   96.8570 O.2    66  ARG66      -0.2715
     62  CB         8.7160   41.2180   97.3660 C.3    66  ARG66       0.0348
     63  CG         8.2220   40.9640   98.7670 C.3    66  ARG66       0.0492
     64  CD         6.8780   41.6470   98.9850 C.3    66  ARG66       0.2205
     65  NE         6.1450   41.0410  100.0880 N.pl3  66  ARG66      -0.0865
     66  CZ         5.4880   39.8900   99.9960 C.cat  66  ARG66       0.5346
     67  NH1        5.4730   39.2290   98.8480 N.pl3  66  ARG66       0.1354
     68  NH2        4.8500   39.3980  101.0490 N.pl3  66  ARG66       0.1354
     69  N         10.9130   39.0850   98.6900 N.am   67  LEU67      -0.1977
     70  CA        11.1070   37.7540   99.2540 C.3    67  LEU67       0.1596
     71  C          9.7460   37.3520   99.8170 C.2    67  LEU67       0.2287
     72  O          9.1010   38.1600  100.4810 O.2    67  LEU67      -0.2864
     73  CB        12.1450   37.8250  100.3720 C.3    67  LEU67       0.0297
     74  CG        12.5950   36.5380  101.0580 C.3    67  LEU67       0.0022
     75  CD1       13.2030   35.5700  100.0390 C.3    67  LEU67       0.0001
     76  CD2       13.6090   36.9010  102.1330 C.3    67  LEU67       0.0001
     77  N         15.6690   30.6670  100.6070 N.3    78  LEU78      -0.1245
     78  CA        14.8910   31.8780  100.3720 C.3    78  LEU78       0.1561
     79  C         13.9120   31.6170   99.2310 C.2    78  LEU78       0.2260
     80  O         14.3120   31.1610   98.1540 O.2    78  LEU78      -0.2867
     81  CB        15.8440   33.0190  100.0090 C.3    78  LEU78       0.0270
     82  CG        16.9680   33.2150  101.0350 C.3    78  LEU78       0.0019
     83  CD1       18.0160   34.1840  100.5200 C.3    78  LEU78       0.0001
     84  CD2       16.3600   33.7110  102.3440 C.3    78  LEU78       0.0001
     85  N         10.9750   33.0680   96.5740 N.3    80  THR80      -0.1203
     86  CA        10.4380   34.2560   95.9250 C.3    80  THR80       0.1994
     87  C          9.6730   33.8410   94.6740 C.2    80  THR80       0.2618
     88  O          9.8130   32.7090   94.1960 O.2    80  THR80      -0.2717
     89  CB        11.5750   35.2520   95.5560 C.3    80  THR80       0.1784
     90  OG1       11.0070   36.4910   95.1040 O.3    80  THR80      -0.2211
     91  CG2       12.4650   34.6730   94.4620 C.3    80  THR80       0.0376
     92  N          8.8490   34.7500   94.1590 N.am   81  GLN81      -0.1965
     93  CA         8.0620   34.4690   92.9710 C.3    81  GLN81       0.1733
     94  C          8.9710   34.1980   91.7810 C.2    81  GLN81       0.2616
     95  O          9.9620   34.8900   91.5710 O.2    81  GLN81      -0.2715
     96  CB         7.1400   35.6480   92.6540 C.3    81  GLN81       0.0408
     97  CG         6.2480   35.4250   91.4510 C.3    81  GLN81       0.0908
     98  CD         5.2480   36.5490   91.2430 C.2    81  GLN81       0.2608
     99  OE1        4.4210   36.4940   90.3360 O.2    81  GLN81      -0.2717
    100  NE2        5.3210   37.5730   92.0830 N.am   81  GLN81      -0.0878
    101  N          8.6330   33.1750   91.0120 N.am   82  LEU82      -0.1963
    102  CA         9.4080   32.8170   89.8420 C.3    82  LEU82       0.1728
    103  C          9.1300   33.8140   88.7150 C.2    82  LEU82       0.2616
    104  O          7.9750   34.1470   88.4460 O.2    82  LEU82      -0.2715
    105  CB         9.0270   31.4090   89.3860 C.3    82  LEU82       0.0311
    106  CG         9.7220   30.8370   88.1470 C.3    82  LEU82       0.0022
    107  CD1       11.2080   30.6580   88.4340 C.3    82  LEU82       0.0001
    108  CD2        9.0850   29.4930   87.7700 C.3    82  LEU82       0.0001
    109  N         10.1960   34.3150   88.0920 N.am   83  MET83      -0.1977
    110  CA        10.0820   35.2290   86.9610 C.3    83  MET83       0.1605
    111  C         10.3320   34.3090   85.7650 C.2    83  MET83       0.2287
    112  O         11.4710   33.9580   85.4580 O.2    83  MET83      -0.2864
    113  CB        11.1470   36.3300   87.0440 C.3    83  MET83       0.0413
    114  CG        10.9930   37.2820   88.2360 C.3    83  MET83       0.0598
    115  SD         9.5130   38.3410   88.1640 S.3    83  MET83      -0.1393
    116  CE         8.5170   37.6850   89.5250 C.3    83  MET83       0.0692
    117  N         13.3090   34.6880   83.0950 N.3    86  GLY86      -0.1210
    118  CA        14.7130   34.6210   83.4930 C.3    86  GLY86       0.1956
    119  C         15.3870   35.9590   83.7470 C.2    86  GLY86       0.2612
    120  O         14.7090   36.9660   83.9260 O.2    86  GLY86      -0.2717
    121  N         16.7210   35.9850   83.7760 N.am   87  CYS87      -0.1970
    122  CA        17.4220   37.2420   84.0200 C.3    87  CYS87       0.1712
    123  C         17.6060   38.0570   82.7390 C.2    87  CYS87       0.2296
    124  O         17.6810   37.5050   81.6390 O.2    87  CYS87      -0.2864
    125  CB        18.7820   36.9880   84.6780 C.3    87  CYS87       0.0983
    126  SG        20.0320   36.3310   83.5900 S.3    87  CYS87      -0.0798
    127  N         20.7430   37.2730   80.1880 N.3    90  ASP90      -0.1239
    128  CA        20.5180   36.1930   79.2320 C.3    90  ASP90       0.1674
    129  C         19.4640   36.6090   78.2200 C.2    90  ASP90       0.2266
    130  O         19.5340   36.2440   77.0490 O.2    90  ASP90      -0.2867
    131  CB        20.0440   34.9200   79.9410 C.3    90  ASP90       0.1410
    132  CG        21.0930   34.3380   80.8780 C.2    90  ASP90       0.3668
    133  OD1       22.2920   34.3520   80.5180 O.co2  90  ASP90      -0.2456
    134  OD2       20.7110   33.8490   81.9670 O.co2  90  ASP90      -0.2456
    135  N         21.3510   40.2980   87.8870 N.3   132  ASN132     -0.1240
    136  CA        20.4570   40.4630   89.0270 C.3   132  ASN132      0.1653
    137  C         19.2230   41.3210   88.7470 C.2   132  ASN132      0.2266
    138  O         18.6290   41.9010   89.6560 O.2   132  ASN132     -0.2867
    139  CB        21.2230   41.0100   90.2370 C.3   132  ASN132      0.1155
    140  CG        22.1560   39.9710   90.8380 C.2   132  ASN132      0.2627
    141  OD1       21.8540   38.7860   90.8100 O.2   132  ASN132     -0.2716
    142  ND2       23.2770   40.4080   91.3870 N.am  132  ASN132     -0.0877
    143  N         15.6640   40.7590   86.7870 N.3   134  LEU134     -0.1245
    144  CA        14.8490   39.6820   86.2180 C.3   134  LEU134      0.1561
    145  C         13.7200   40.2070   85.3360 C.2   134  LEU134      0.2260
    146  O         13.2550   41.3390   85.4980 O.2   134  LEU134     -0.2867
    147  CB        14.2760   38.8180   87.3460 C.3   134  LEU134      0.0270
    148  CG        15.3140   38.2680   88.3330 C.3   134  LEU134      0.0019
    149  CD1       14.6340   37.4000   89.3850 C.3   134  LEU134      0.0001
    150  CD2       16.3720   37.4560   87.5630 C.3   134  LEU134      0.0001
    151  N         16.6190   42.1950   91.8720 N.3   144  THR144     -0.1203
    152  CA        16.5750   41.1840   92.9170 C.3   144  THR144      0.1994
    153  C         17.9580   41.0370   93.5470 C.2   144  THR144      0.2618
    154  O         18.9020   41.7110   93.1390 O.2   144  THR144     -0.2717
    155  CB        16.1170   39.8170   92.3580 C.3   144  THR144      0.1784
    156  OG1       15.8490   38.9320   93.4530 O.3   144  THR144     -0.2211
    157  CG2       17.2050   39.1950   91.4660 C.3   144  THR144      0.0376
    158  N         18.0510   40.1720   94.5530 N.am  145  ASP145     -0.1959
    159  CA        19.2980   39.8760   95.2550 C.3   145  ASP145      0.1840
    160  C         19.9310   41.0120   96.0630 C.2   145  ASP145      0.2622
    161  O         21.1300   40.9770   96.3420 O.2   145  ASP145     -0.2715
    162  CB        20.3270   39.3150   94.2670 C.3   145  ASP145      0.1450
    163  CG        20.9760   38.0380   94.7720 C.2   145  ASP145      0.3671
    164  OD1       20.2960   37.2560   95.4700 O.co2 145  ASP145     -0.2456
    165  OD2       22.1620   37.8090   94.4690 O.co2 145  ASP145     -0.2456
    166  N         19.1480   42.0190   96.4360 N.am  146  PHE146     -0.1974
    167  CA        19.7120   43.0990   97.2360 C.3   146  PHE146      0.1639
    168  C         19.8250   42.5930   98.6730 C.2   146  PHE146      0.2290
    169  O         19.1030   41.6830   99.0730 O.2   146  PHE146     -0.2864
    170  CB        18.8340   44.3620   97.1790 C.3   146  PHE146      0.0560
    171  CG        17.3610   44.0940   97.3100 C.ar  146  PHE146     -0.0200
    172  CD1       16.5970   43.7660   96.1940 C.ar  146  PHE146     -0.0042
    173  CD2       16.7380   44.1650   98.5490 C.ar  146  PHE146     -0.0042
    174  CE1       15.2280   43.5150   96.3080 C.ar  146  PHE146     -0.0003
    175  CE2       15.3680   43.9130   98.6750 C.ar  146  PHE146     -0.0003
    176  CZ        14.6140   43.5890   97.5520 C.ar  146  PHE146     -0.0000
    177  N         21.7060   40.5030  100.1770 N.3   148  LEU148     -0.1245
    178  CA        22.4780   39.2830  100.3870 C.3   148  LEU148      0.1561
    179  C         23.9580   39.5680  100.6030 C.2   148  LEU148      0.2260
    180  O         24.5760   39.0040  101.5000 O.2   148  LEU148     -0.2867
    181  CB        22.3010   38.3120   99.2140 C.3   148  LEU148      0.0270
    182  CG        21.2280   37.2380   99.4270 C.3   148  LEU148      0.0019
    183  CD1       21.1980   36.2880   98.2420 C.3   148  LEU148      0.0001
    184  CD2       21.5320   36.4660  100.7030 C.3   148  LEU148      0.0001
    185  N         10.3940   26.6040   81.3230 N.3   276  MET276     -0.1245
    186  CA        10.0950   26.6300   82.7520 C.3   276  MET276      0.1570
    187  C          9.0990   25.5770   83.2270 C.2   276  MET276      0.2261
    188  O          9.3200   24.9330   84.2520 O.2   276  MET276     -0.2867
    189  CB         9.5860   28.0130   83.1640 C.3   276  MET276      0.0387
    190  CG        10.6110   29.1310   83.0390 C.3   276  MET276      0.0595
    191  SD        12.1140   28.8720   84.0220 S.3   276  MET276     -0.1393
    192  CE        13.2990   28.6750   82.7520 C.3   276  MET276      0.0692
@<TRIPOS>BOND
     1   130   129    2
     2   129   128    1
     3   128   131    1
     4   128   127    1
     5   131   132    1
     6   133   132   ar
     7   132   134   ar
     8   185   186    1
     9   124   123    2
    10   123   122    1
    11   186   189    1
    12   186   187    1
    13   192   191    1
    14   190   189    1
    15   190   191    1
    16   117   118    1
    17   187   188    2
    18   118   119    1
    19   126   125    1
    20   119   121   am
    21   119   120    2
    22   121   122    1
    23   122   125    1
    24   145   146    2
    25   145   144    1
    26   112   111    2
    27   111   110    1
    28     4     3    2
    29   144   143    1
    30   144   147    1
    31     8     6    1
    32   110   113    1
    33   110   109    1
    34   113   114    1
    35     3     2    1
    36     3     9   am
    37   147   148    1
    38     2     5    1
    39     2     1    1
    40   150   148    1
    41   108   106    1
    42   135   136    1
    43     6     5    1
    44     6     7    1
    45    10     9    1
    46    10    11    1
    47   109   103   am
    48   106   107    1
    49   106   105    1
    50   115   114    1
    51   115   116    1
    52   148   149    1
    53   104   103    2
    54   103   102    1
    55   137   136    1
    56   137   138    2
    57   136   139    1
    58    13    11   am
    59    13    14    1
    60    11    12    2
    61   105   102    1
    62    16    15    2
    63   102   101    1
    64    18    17    1
    65    17    14    1
    66   139   140    1
    67    14    15    1
    68    99    98    2
    69    15    19   am
    70   141   140    2
    71   140   142   am
    72    26    25    2
    73   101    94   am
    74    98    97    1
    75    98   100   am
    76    97    96    1
    77    57    56    1
    78   157   155    1
    79    19    20    1
    80    95    94    2
    81    28    27    1
    82    20    21    1
    83    94    93    1
    84    27    29    1
    85    27    24    1
    86   151   152    1
    87    25    24    1
    88    34    31    1
    89   155   152    1
    90   155   156    1
    91    21    22    2
    92    24    23    1
    93    96    93    1
    94    31    30    1
    95    31    32    1
    96   152   153    1
    97    93    92    1
    98   154   153    2
    99    56    53    1
   100    52    53    1
   101   153   158   am
   102    53    54    1
   103    32    33    2
   104    92    87   am
   105    88    87    2
   106   162   163    1
   107   162   159    1
   108    91    89    1
   109   165   163   ar
   110   158   159    1
   111    87    86    1
   112   163   164   ar
   113    43    42    1
   114    42    41    1
   115    90    89    1
   116    54    58   am
   117    54    55    2
   118   159   160    1
   119    89    86    1
   120    58    59    1
   121    86    85    1
   122   160   161    2
   123   160   166   am
   124   172   174   ar
   125   172   171   ar
   126   174   176   ar
   127   166   167    1
   128    35    36    1
   129    39    36    1
   130    39    40    1
   131    41    40    1
   132    36    37    1
   133    61    60    2
   134    59    62    1
   135    59    60    1
   136   170   167    1
   137   170   171    1
   138   167   168    1
   139   171   173   ar
   140    62    63    1
   141    60    69   am
   142   176   175   ar
   143    37    38    2
   144    80    79    2
   145   183   182    1
   146   173   175   ar
   147   168   169    2
   148    69    70    1
   149    63    64    1
   150    67    66    1
   151    64    65    1
   152   181   182    1
   153   181   178    1
   154    79    78    1
   155    70    71    1
   156    70    73    1
   157   182   184    1
   158    71    72    2
   159    66    65    2
   160    66    68    1
   161    81    78    1
   162    81    82    1
   163    75    74    1
   164   177   178    1
   165    47    46    2
   166    78    77    1
   167    73    74    1
   168   178   179    1
   169    83    82    1
   170   179   180    2
   171    82    84    1
   172    74    76    1
   173    46    45    1
   174    50    49    1
   175    50    51    1
   176    48    49    1
   177    48    45    1
   178    45    44    1
