@<TRIPOS>MOLECULE
tmp/2rguB04.pdb
 236 233 0 0 0
SMALL
GASTEIGER

@<TRIPOS>ATOM
      1  N         55.8480   68.6520   71.6780 N.3    87  ARG87      -0.1245
      2  CA        56.7650   68.1840   72.7180 C.3    87  ARG87       0.1563
      3  C         56.2850   68.3520   74.1600 C.2    87  ARG87       0.2260
      4  O         56.6510   67.5530   75.0310 O.2    87  ARG87      -0.2867
      5  CB        58.1350   68.8380   72.5760 C.3    87  ARG87       0.0307
      6  CG        59.1100   68.4510   73.6820 C.3    87  ARG87       0.0489
      7  CD        60.3170   69.3430   73.6630 C.3    87  ARG87       0.2205
      8  NE        60.9150   69.4000   72.3320 N.pl3  87  ARG87      -0.0865
      9  CZ        62.0000   68.7200   71.9790 C.cat  87  ARG87       0.5346
     10  NH1       62.6030   67.9410   72.8690 N.pl3  87  ARG87       0.1354
     11  NH2       62.4740   68.8050   70.7380 N.pl3  87  ARG87       0.1354
     12  N         58.0680   75.2790   71.6120 N.3   167  GLU167     -0.1231
     13  CA        59.3070   74.5950   71.3350 C.3   167  GLU167      0.1699
     14  C         60.5800   75.3610   71.6560 C.2   167  GLU167      0.2592
     15  O         61.4570   74.8410   72.3370 O.2   167  GLU167     -0.2718
     16  CB        59.3190   74.1580   69.8500 C.3   167  GLU167      0.0402
     17  CG        60.5970   73.4580   69.3710 C.3   167  GLU167      0.1161
     18  CD        60.8350   72.1030   70.0300 C.2   167  GLU167      0.3649
     19  OE1       60.0560   71.7050   70.9290 O.co2 167  GLU167     -0.2457
     20  OE2       61.8130   71.4300   69.6470 O.co2 167  GLU167     -0.2457
     21  N         60.6780   76.5970   71.1810 N.am  168  GLU168     -0.1979
     22  CA        61.9000   77.3770   71.3500 C.3   168  GLU168      0.1602
     23  C         61.9160   78.4710   72.4090 C.2   168  GLU168      0.2287
     24  O         62.9700   79.0390   72.6790 O.2   168  GLU168     -0.2864
     25  CB        62.2890   78.0140   70.0070 C.3   168  GLU168      0.0415
     26  CG        62.0130   77.1680   68.7600 C.3   168  GLU168      0.1163
     27  CD        62.9790   75.9970   68.5890 C.2   168  GLU168      0.3649
     28  OE1       63.8100   75.7510   69.5060 O.co2 168  GLU168     -0.2457
     29  OE2       62.9010   75.3270   67.5270 O.co2 168  GLU168     -0.2457
     30  N         59.5680   76.1250   76.4150 N.3   171  SER171     -0.1217
     31  CA        59.7180   74.7020   76.7150 C.3   171  SER171      0.1889
     32  C         58.5130   74.2740   77.5450 C.2   171  SER171      0.2288
     33  O         58.6360   73.5030   78.5000 O.2   171  SER171     -0.2866
     34  CB        61.0020   74.4520   77.5050 C.3   171  SER171      0.2089
     35  OG        62.1250   74.8620   76.7630 O.3   171  SER171     -0.2183
     36  N         70.0850   79.9530   75.3520 N.3   319  PHE319     -0.1227
     37  CA        69.0140   79.6830   74.3930 C.3   319  PHE319      0.1736
     38  C         67.9780   80.7890   74.4880 C.2   319  PHE319      0.2595
     39  O         67.1160   80.9460   73.6220 O.2   319  PHE319     -0.2718
     40  CB        68.3710   78.3350   74.6880 C.3   319  PHE319      0.0547
     41  CG        69.2780   77.1730   74.4150 C.ar  319  PHE319     -0.0202
     42  CD1       69.4120   76.6670   73.1290 C.ar  319  PHE319     -0.0042
     43  CD2       70.0520   76.6210   75.4370 C.ar  319  PHE319     -0.0042
     44  CE1       70.3070   75.6280   72.8620 C.ar  319  PHE319     -0.0003
     45  CE2       70.9510   75.5860   75.1820 C.ar  319  PHE319     -0.0003
     46  CZ        71.0790   75.0890   73.8970 C.ar  319  PHE319     -0.0000
     47  N         68.0860   81.5650   75.5560 N.am  320  ARG320     -0.1980
     48  CA        67.1970   82.6820   75.8060 C.3   320  ARG320      0.1597
     49  C         67.8150   83.3850   76.9980 C.2   320  ARG320      0.2287
     50  O         68.6650   82.8170   77.6760 O.2   320  ARG320     -0.2864
     51  CB        65.7810   82.1780   76.1340 C.3   320  ARG320      0.0334
     52  CG        65.6200   81.5100   77.5020 C.3   320  ARG320      0.0492
     53  CD        64.5150   80.4600   77.4920 C.3   320  ARG320      0.2205
     54  NE        65.0820   79.1180   77.6270 N.pl3 320  ARG320     -0.0865
     55  CZ        64.4200   77.9760   77.4420 C.cat 320  ARG320      0.5346
     56  NH1       63.1310   77.9680   77.0950 N.pl3 320  ARG320      0.1354
     57  NH2       65.0540   76.8260   77.6350 N.pl3 320  ARG320      0.1354
     58  N         79.6110   59.5200   68.0270 N.3   507  ASP507     -0.1225
     59  CA        78.2450   59.9090   68.3950 C.3   507  ASP507      0.1805
     60  C         78.2400   61.4350   68.4850 C.2   507  ASP507      0.2598
     61  O         78.8710   62.0140   69.3740 O.2   507  ASP507     -0.2718
     62  CB        77.9060   59.2900   69.7470 C.3   507  ASP507      0.1424
     63  CG        76.4700   59.5350   70.1760 C.2   507  ASP507      0.3668
     64  OD1       75.7680   60.3720   69.5660 O.co2 507  ASP507     -0.2456
     65  OD2       76.0540   58.8840   71.1560 O.co2 507  ASP507     -0.2456
     66  N         77.5180   62.0850   67.5790 N.am  508  VAL508     -0.1966
     67  CA        77.5240   63.5400   67.5410 C.3   508  VAL508      0.1727
     68  C         76.2100   64.3130   67.6490 C.2   508  VAL508      0.2616
     69  O         75.1510   63.8480   67.2560 O.2   508  VAL508     -0.2715
     70  CB        78.2860   64.0160   66.2550 C.3   508  VAL508      0.0290
     71  CG1       77.8320   63.2160   65.0570 C.3   508  VAL508      0.0023
     72  CG2       78.0580   65.5020   65.9950 C.3   508  VAL508      0.0023
     73  N         76.3260   65.5110   68.2090 N.am  509  TYR509     -0.1974
     74  CA        75.2450   66.4650   68.3700 C.3   509  TYR509      0.1639
     75  C         75.9240   67.7620   67.8950 C.2   509  TYR509      0.2290
     76  O         75.5440   68.3580   66.8880 O.2   509  TYR509     -0.2864
     77  CB        74.8320   66.5480   69.8490 C.3   509  TYR509      0.0560
     78  CG        73.8540   67.6610   70.1960 C.ar  509  TYR509     -0.0198
     79  CD1       73.4340   68.5950   69.2340 C.ar  509  TYR509     -0.0009
     80  CD2       73.4500   67.8650   71.5170 C.ar  509  TYR509     -0.0009
     81  CE1       72.6650   69.7030   69.5870 C.ar  509  TYR509      0.0417
     82  CE2       72.6720   68.9740   71.8730 C.ar  509  TYR509      0.0417
     83  CZ        72.2960   69.8830   70.9030 C.ar  509  TYR509      0.1957
     84  OH        71.5880   70.9950   71.2600 O.3   509  TYR509     -0.2866
     85  N         78.3990   66.7520   74.5940 N.3   516  LYS516     -0.1245
     86  CA        78.2630   65.2940   74.5830 C.3   516  LYS516      0.1561
     87  C         79.3310   64.6210   75.4490 C.2   516  LYS516      0.2260
     88  O         79.2340   63.4380   75.7640 O.2   516  LYS516     -0.2867
     89  CB        78.3080   64.7700   73.1450 C.3   516  LYS516      0.0271
     90  CG        77.1160   65.2180   72.3070 C.3   516  LYS516      0.0035
     91  CD        75.9000   64.3510   72.5430 C.3   516  LYS516      0.0206
     92  CE        76.0420   63.0060   71.8270 C.3   516  LYS516      0.1093
     93  NZ        74.7730   62.2110   71.8100 N.3   516  LYS516     -0.1314
     94  N         77.4560   59.3010   63.3180 N.3   589  TRP589     -0.1241
     95  CA        75.9960   59.3450   63.2970 C.3   589  TRP589      0.1605
     96  C         75.4330   60.3900   64.2490 C.2   589  TRP589      0.2264
     97  O         76.0100   60.6780   65.3010 O.2   589  TRP589     -0.2867
     98  CB        75.3990   57.9730   63.6300 C.3   589  TRP589      0.0550
     99  CG        75.0800   57.7650   65.0720 C.ar  589  TRP589      0.0003
    100  CD1       75.9590   57.4850   66.0700 C.ar  589  TRP589      0.0946
    101  CD2       73.7800   57.8400   65.6860 C.ar  589  TRP589      0.0152
    102  NE1       75.2930   57.3780   67.2700 N.ar  589  TRP589     -0.2442
    103  CE2       73.9550   57.5940   67.0620 C.ar  589  TRP589      0.0810
    104  CE3       72.4880   58.0930   65.2030 C.ar  589  TRP589      0.0012
    105  CZ2       72.8860   57.5930   67.9700 C.ar  589  TRP589      0.0191
    106  CZ3       71.4200   58.0930   66.1060 C.ar  589  TRP589      0.0001
    107  CH2       71.6300   57.8450   67.4740 C.ar  589  TRP589      0.0015
    108  N         71.4670   62.5840   65.4160 N.3   591  TRP591     -0.1227
    109  CA        70.0420   62.8500   65.3020 C.3   591  TRP591      0.1737
    110  C         69.7980   64.3630   65.2740 C.2   591  TRP591      0.2596
    111  O         70.4930   65.1180   65.9440 O.2   591  TRP591     -0.2718
    112  CB        69.3540   62.2240   66.5160 C.3   591  TRP591      0.0564
    113  CG        67.9080   61.9380   66.3510 C.ar  591  TRP591      0.0003
    114  CD1       66.9250   62.8260   66.0040 C.ar  591  TRP591      0.0946
    115  CD2       67.2540   60.6820   66.5860 C.ar  591  TRP591      0.0152
    116  NE1       65.7040   62.2000   66.0140 N.ar  591  TRP591     -0.2442
    117  CE2       65.8750   60.8840   66.3670 C.ar  591  TRP591      0.0810
    118  CE3       67.6980   59.4120   66.9640 C.ar  591  TRP591      0.0012
    119  CZ2       64.9300   59.8560   66.5180 C.ar  591  TRP591      0.0191
    120  CZ3       66.7550   58.3850   67.1150 C.ar  591  TRP591      0.0001
    121  CH2       65.3890   58.6180   66.8910 C.ar  591  TRP591      0.0015
    122  N         68.8260   64.8130   64.4930 N.am  592  SER592     -0.1938
    123  CA        68.4970   66.2350   64.4440 C.3   592  SER592      0.2055
    124  C         69.7020   67.1040   64.0730 C.2   592  SER592      0.2643
    125  O         70.2340   66.9770   62.9680 O.2   592  SER592     -0.2714
    126  CB        67.9250   66.6640   65.8020 C.3   592  SER592      0.2130
    127  OG        67.2150   67.8810   65.7090 O.3   592  SER592     -0.2179
    128  N         70.1290   68.0000   64.9670 N.am  593  TYR593     -0.1973
    129  CA        71.2950   68.8320   64.6530 C.3   593  TYR593      0.1639
    130  C         72.4790   67.8930   64.4550 C.2   593  TYR593      0.2290
    131  O         73.3440   68.1250   63.6190 O.2   593  TYR593     -0.2864
    132  CB        71.6100   69.8310   65.7800 C.3   593  TYR593      0.0560
    133  CG        72.6070   70.9030   65.3740 C.ar  593  TYR593     -0.0198
    134  CD1       73.9510   70.5990   65.1800 C.ar  593  TYR593     -0.0009
    135  CD2       72.1900   72.2080   65.1330 C.ar  593  TYR593     -0.0009
    136  CE1       74.8650   71.5760   64.7480 C.ar  593  TYR593      0.0417
    137  CE2       73.0820   73.1880   64.7000 C.ar  593  TYR593      0.0417
    138  CZ        74.4170   72.8660   64.5070 C.ar  593  TYR593      0.1957
    139  OH        75.2920   73.8220   64.0480 O.3   593  TYR593     -0.2866
    140  N         68.5600   68.2950   59.8440 N.3   618  VAL618     -0.1245
    141  CA        68.2880   69.5360   59.1470 C.3   618  VAL618      0.1561
    142  C         69.2230   69.4200   57.9490 C.2   618  VAL618      0.2260
    143  O         70.2850   68.8110   58.0540 O.2   618  VAL618     -0.2867
    144  CB        68.6920   70.7700   59.9840 C.3   618  VAL618      0.0252
    145  CG1       68.6430   72.0320   59.1220 C.3   618  VAL618      0.0019
    146  CG2       67.7660   70.9130   61.1690 C.3   618  VAL618      0.0019
    147  N         69.0070   75.4350   56.4030 N.3   621  TRP621     -0.1241
    148  CA        68.4690   76.2720   57.4820 C.3   621  TRP621      0.1605
    149  C         67.2090   77.0850   57.2260 C.2   621  TRP621      0.2264
    150  O         66.6130   77.6190   58.1580 O.2   621  TRP621     -0.2867
    151  CB        69.5700   77.1800   58.0410 C.3   621  TRP621      0.0550
    152  CG        70.5930   76.3860   58.7870 C.ar  621  TRP621      0.0003
    153  CD1       71.8690   76.1210   58.3960 C.ar  621  TRP621      0.0946
    154  CD2       70.3810   75.6490   59.9970 C.ar  621  TRP621      0.0152
    155  NE1       72.4660   75.2560   59.2820 N.ar  621  TRP621     -0.2442
    156  CE2       71.5730   74.9510   60.2730 C.ar  621  TRP621      0.0810
    157  CE3       69.2960   75.5060   60.8700 C.ar  621  TRP621      0.0012
    158  CZ2       71.7110   74.1180   61.3870 C.ar  621  TRP621      0.0191
    159  CZ3       69.4320   74.6790   61.9690 C.ar  621  TRP621      0.0001
    160  CH2       70.6310   73.9940   62.2180 C.ar  621  TRP621      0.0015
    161  N         64.1340   75.1890   58.8760 N.3   624  TYR624     -0.1241
    162  CA        63.8800   75.1550   60.3080 C.3   624  TYR624      0.1605
    163  C         63.1900   76.4250   60.7650 C.2   624  TYR624      0.2264
    164  O         63.0330   77.3560   59.9860 O.2   624  TYR624     -0.2867
    165  CB        65.1620   74.9500   61.0950 C.3   624  TYR624      0.0534
    166  CG        64.8890   74.2710   62.4130 C.ar  624  TYR624     -0.0201
    167  CD1       64.1340   73.0960   62.4610 C.ar  624  TYR624     -0.0009
    168  CD2       65.3890   74.7870   63.6040 C.ar  624  TYR624     -0.0009
    169  CE1       63.8890   72.4520   63.6620 C.ar  624  TYR624      0.0417
    170  CE2       65.1500   74.1580   64.8100 C.ar  624  TYR624      0.0417
    171  CZ        64.4010   72.9860   64.8400 C.ar  624  TYR624      0.1957
    172  OH        64.1900   72.3350   66.0420 O.3   624  TYR624     -0.2866
    173  N         64.9230   79.4130   66.6620 N.3   628  TYR628     -0.1241
    174  CA        66.1870   78.7240   66.8430 C.3   628  TYR628      0.1605
    175  C         67.2050   79.1450   65.7940 C.2   628  TYR628      0.2264
    176  O         68.3100   79.5750   66.1140 O.2   628  TYR628     -0.2867
    177  CB        65.9930   77.2000   66.8010 C.3   628  TYR628      0.0534
    178  CG        67.2790   76.4140   67.0050 C.ar  628  TYR628     -0.0201
    179  CD1       68.0590   76.0180   65.9240 C.ar  628  TYR628     -0.0009
    180  CD2       67.7190   76.0840   68.2800 C.ar  628  TYR628     -0.0009
    181  CE1       69.2480   75.3010   66.1040 C.ar  628  TYR628      0.0417
    182  CE2       68.9050   75.3730   68.4780 C.ar  628  TYR628      0.0417
    183  CZ        69.6680   74.9770   67.3830 C.ar  628  TYR628      0.1957
    184  OH        70.8310   74.2390   67.5690 O.3   628  TYR628     -0.2866
    185  N         68.5260   82.7800   65.7860 N.3   631  ARG631     -0.1245
    186  CA        69.3320   83.0660   66.9480 C.3   631  ARG631      0.1563
    187  C         70.8230   82.9500   66.6220 C.2   631  ARG631      0.2260
    188  O         71.6580   83.6340   67.2240 O.2   631  ARG631     -0.2867
    189  CB        68.9650   82.1180   68.0880 C.3   631  ARG631      0.0307
    190  CG        69.7020   82.3950   69.3880 C.3   631  ARG631      0.0489
    191  CD        68.8930   81.9450   70.5800 C.3   631  ARG631      0.2205
    192  NE        68.6800   80.5010   70.5870 N.pl3 631  ARG631     -0.0865
    193  CZ        67.4980   79.9080   70.7320 C.cat 631  ARG631      0.5346
    194  NH1       66.3850   80.6220   70.8910 N.pl3 631  ARG631      0.1354
    195  NH2       67.4360   78.5900   70.6980 N.pl3 631  ARG631      0.1354
    196  N         58.6430   69.0140   63.9880 N.3   672  ASN672     -0.1225
    197  CA        59.8160   69.8160   64.3540 C.3   672  ASN672      0.1785
    198  C         60.7500   70.0110   63.1470 C.2   672  ASN672      0.2597
    199  O         60.8550   71.1150   62.6050 O.2   672  ASN672     -0.2718
    200  CB        60.5710   69.1170   65.4890 C.3   672  ASN672      0.1169
    201  CG        61.7280   69.9390   66.0200 C.2   672  ASN672      0.2627
    202  OD1       62.4810   69.4840   66.8910 O.2   672  ASN672     -0.2716
    203  ND2       61.8730   71.1620   65.5080 N.am  672  ASN672     -0.0877
    204  N         61.4400   68.9430   62.7500 N.am  673  VAL673     -0.1980
    205  CA        62.3260   68.9840   61.5840 C.3   673  VAL673      0.1595
    206  C         61.5490   68.2370   60.5280 C.2   673  VAL673      0.2287
    207  O         61.5400   67.0080   60.4830 O.2   673  VAL673     -0.2864
    208  CB        63.6670   68.2670   61.8340 C.3   673  VAL673      0.0276
    209  CG1       64.5330   68.3040   60.5790 C.3   673  VAL673      0.0022
    210  CG2       64.3770   68.9230   62.9850 C.3   673  VAL673      0.0022
    211  N         59.5990   63.6410   65.3890 N.3   702  HIS702     -0.1226
    212  CA        60.9860   63.8720   65.7280 C.3   702  HIS702      0.1752
    213  C         61.6310   62.8530   66.6520 C.2   702  HIS702      0.2596
    214  O         62.8050   62.5020   66.4740 O.2   702  HIS702     -0.2718
    215  CB        61.1580   65.2720   66.3130 C.3   702  HIS702      0.0759
    216  CG        62.5620   65.7670   66.2330 C.ar  702  HIS702      0.0818
    217  ND1       63.2320   65.8880   65.0340 N.ar  702  HIS702     -0.2268
    218  CD2       63.4480   66.1060   67.1980 C.ar  702  HIS702      0.1154
    219  CE1       64.4730   66.2780   65.2650 C.ar  702  HIS702      0.1986
    220  NE2       64.6290   66.4170   66.5700 N.ar  702  HIS702     -0.2212
    221  N         60.8750   62.3710   67.6330 N.am  703  GLY703     -0.1957
    222  CA        61.4370   61.4150   68.5700 C.3   703  GLY703      0.1869
    223  C         61.4490   59.9630   68.1250 C.2   703  GLY703      0.2309
    224  O         62.2040   59.1620   68.6870 O.2   703  GLY703     -0.2863
    225  N         66.5730   51.3540   65.8230 N.3   714  TYR714     -0.1241
    226  CA        67.8340   50.9460   66.4300 C.3   714  TYR714      0.1605
    227  C         68.2660   49.5590   65.9880 C.2   714  TYR714      0.2264
    228  O         69.4470   49.2020   66.0730 O.2   714  TYR714     -0.2867
    229  CB        67.7520   51.0150   67.9610 C.3   714  TYR714      0.0534
    230  CG        68.0200   52.3960   68.4930 C.ar  714  TYR714     -0.0201
    231  CD1       69.3090   52.9340   68.4750 C.ar  714  TYR714     -0.0009
    232  CD2       66.9760   53.2000   68.9550 C.ar  714  TYR714     -0.0009
    233  CE1       69.5460   54.2450   68.8980 C.ar  714  TYR714      0.0417
    234  CE2       67.1990   54.5000   69.3810 C.ar  714  TYR714      0.0417
    235  CZ        68.4810   55.0240   69.3500 C.ar  714  TYR714      0.1957
    236  OH        68.6800   56.3300   69.7520 O.3   714  TYR714     -0.2866
@<TRIPOS>BOND
     1   147   148    1
     2   149   148    1
     3   149   150    2
     4   148   151    1
     5   142   143    2
     6   142   141    1
     7   151   152    1
     8   153   152   ar
     9   153   155   ar
    10   152   154   ar
    11   161   162    1
    12   145   144    1
    13   141   140    1
    14   141   144    1
    15   155   156   ar
    16   144   146    1
    17   164   163    2
    18   154   156   ar
    19   154   157   ar
    20   156   158   ar
    21   162   163    1
    22   162   165    1
    23   207   206    2
    24   206   205    1
    25   209   208    1
    26   157   159   ar
    27   165   166    1
    28   158   160   ar
    29   205   208    1
    30   205   204    1
    31   208   210    1
    32   159   160   ar
    33   166   167   ar
    34   166   168   ar
    35   167   169   ar
    36   199   198    2
    37   204   198   am
    38   125   124    2
    39   198   197    1
    40    95    94    1
    41    95    98    1
    42    95    96    1
    43   168   170   ar
    44   131   130    2
    45    98    99    1
    46   169   171   ar
    47   196   197    1
    48   139   138    1
    49   124   123    1
    50   124   128   am
    51    96    97    2
    52   197   200    1
    53   123   122    1
    54   123   126    1
    55   130   129    1
    56   122   110   am
    57   138   137   ar
    58   138   136   ar
    59   129   128    1
    60   129   132    1
    61   137   135   ar
    62   136   134   ar
    63   170   171   ar
    64   171   172    1
    65   217   219   ar
    66   217   216   ar
    67    71    70    1
    68    99   101   ar
    69    99   100   ar
    70   135   133   ar
    71   134   133   ar
    72   104   101   ar
    73   104   106   ar
    74   219   220   ar
    75   110   109    1
    76   110   111    2
    77   109   108    1
    78   109   112    1
    79   133   132    1
    80   211   212    1
    81   200   201    1
    82   203   201   am
    83   101   103   ar
    84   127   126    1
    85   212   215    1
    86   212   213    1
    87   185   186    1
    88   175   176    2
    89   175   174    1
    90   225   226    1
    91   179   181   ar
    92   179   178   ar
    93   227   228    2
    94   227   226    1
    95    72    70    1
    96   114   116   ar
    97   114   113   ar
    98   116   117   ar
    99   201   202    2
   100   100   102   ar
   101   181   183   ar
   102   106   107   ar
   103   216   215    1
   104   216   218   ar
   105    70    67    1
   106   113   112    1
   107   113   115   ar
   108   117   119   ar
   109   117   115   ar
   110   226   229    1
   111   214   213    2
   112   119   121   ar
   113   220   218   ar
   114   115   118   ar
   115   187   186    1
   116   187   188    2
   117   213   221   am
   118   173   174    1
   119   177   174    1
   120   177   178    1
   121    76    75    2
   122   121   120   ar
   123   186   189    1
   124   118   120   ar
   125   178   180   ar
   126   103   102   ar
   127   103   105   ar
   128    69    68    2
   129   183   184    1
   130   183   182   ar
   131   107   105   ar
   132    29    27   ar
   133    67    66    1
   134    67    68    1
   135    66    60   am
   136   221   222    1
   137    68    73   am
   138    75    74    1
   139   229   230    1
   140    58    59    1
   141   189   190    1
   142   223   222    1
   143   223   224    2
   144    73    74    1
   145   180   182   ar
   146    74    77    1
   147    59    60    1
   148    59    62    1
   149   231   230   ar
   150   231   233   ar
   151    60    61    2
   152   230   232   ar
   153    27    26    1
   154    27    28   ar
   155    26    25    1
   156   233   235   ar
   157   232   234   ar
   158    79    81   ar
   159    79    78   ar
   160   235   234   ar
   161   235   236    1
   162    17    16    1
   163    17    18    1
   164   190   191    1
   165    64    63   ar
   166    81    83   ar
   167    20    18   ar
   168    62    63    1
   169    77    78    1
   170    16    13    1
   171    25    22    1
   172    18    19   ar
   173    63    65   ar
   174    78    80   ar
   175   191   192    1
   176   192   193    2
   177   195   193    1
   178   193   194    1
   179    11     9    1
   180    83    84    1
   181    83    82   ar
   182    21    22    1
   183    21    14   am
   184    13    12    1
   185    13    14    1
   186    22    23    1
   187    80    82   ar
   188    14    15    2
   189     1     2    1
   190    93    92    1
   191    92    91    1
   192     9     8    2
   193     9    10    1
   194    90    91    1
   195    90    89    1
   196     8     7    1
   197    23    24    2
   198     5     2    1
   199     5     6    1
   200     2     3    1
   201    44    42   ar
   202    44    46   ar
   203    42    41   ar
   204    89    86    1
   205    39    38    2
   206     7     6    1
   207    46    45   ar
   208     3     4    2
   209    37    38    1
   210    37    40    1
   211    37    36    1
   212    41    40    1
   213    41    43   ar
   214    38    47   am
   215    86    85    1
   216    86    87    1
   217    45    43   ar
   218    87    88    2
   219    47    48    1
   220    48    51    1
   221    48    49    1
   222    51    52    1
   223    30    31    1
   224    31    34    1
   225    31    32    1
   226    35    34    1
   227    49    50    2
   228    56    55    1
   229    55    54    2
   230    55    57    1
   231    53    52    1
   232    53    54    1
   233    32    33    2
