@<TRIPOS>MOLECULE
tmp/2rh1A04.pdb
 87 81 0 0 0
SMALL
GASTEIGER

@<TRIPOS>ATOM
      1  N        -43.3950   29.7870    2.2330 N.3    27  ILE27      -0.1245
      2  CA       -43.1640   29.9060    0.7910 C.3    27  ILE27       0.1561
      3  C        -44.0760   30.9600    0.1770 C.2    27  ILE27       0.2260
      4  O        -43.6060   31.8440   -0.5520 O.2    27  ILE27      -0.2867
      5  CB       -43.3790   28.5690    0.0900 C.3    27  ILE27       0.0252
      6  CG1      -42.2530   27.5910    0.4540 C.3    27  ILE27       0.0019
      7  CG2      -43.4300   28.7660   -1.4090 C.3    27  ILE27       0.0019
      8  CD1      -42.5730   26.1520    0.1270 C.3    27  ILE27       0.0001
      9  N        -43.0160   34.5110   -1.5050 N.3    31  ALA31      -0.1245
     10  CA       -43.4200   34.5990   -2.9130 C.3    31  ALA31       0.1562
     11  C        -44.4220   35.7220   -3.1740 C.2    31  ALA31       0.2260
     12  O        -44.4160   36.3110   -4.2560 O.2    31  ALA31      -0.2867
     13  CB       -43.9990   33.2680   -3.3850 C.3    31  ALA31       0.0290
     14  N        -36.5540   30.1000    1.5060 N.3    45  THR45      -0.1218
     15  CA       -37.5000   29.3970    0.6440 C.3    45  THR45       0.1862
     16  C        -36.9370   28.0400    0.2640 C.2    45  THR45       0.2287
     17  O        -37.6630   27.0450    0.2960 O.2    45  THR45      -0.2866
     18  CB       -37.8400   30.2080   -0.6180 C.3    45  THR45       0.1770
     19  OG1      -38.4910   31.4240   -0.2280 O.3    45  THR45      -0.2211
     20  CG2      -38.7470   29.4180   -1.5480 C.3    45  THR45       0.0375
     21  N        -38.5780   24.4610    1.1840 N.3    49  CYS49      -0.1235
     22  CA       -38.9110   23.4110    0.1760 C.3    49  CYS49       0.1677
     23  C        -38.3990   22.0390    0.6010 C.2    49  CYS49       0.2270
     24  O        -39.0840   21.0470    0.4010 O.2    49  CYS49      -0.2867
     25  CB       -38.3500   23.7520   -1.1950 C.3    49  CYS49       0.0956
     26  SG       -39.1350   25.1620   -1.9700 S.3    49  CYS49      -0.0801
     27  N        -40.7120   21.0340    3.2370 N.3    52  LEU52      -0.1231
     28  CA       -42.0080   20.6830    2.6160 C.3    52  LEU52       0.1693
     29  C        -41.9600   19.2840    2.0090 C.2    52  LEU52       0.2591
     30  O        -42.8890   18.5050    2.1840 O.2    52  LEU52      -0.2718
     31  CB       -42.4300   21.7050    1.5620 C.3    52  LEU52       0.0284
     32  CG       -43.8280   21.4940    0.9690 C.3    52  LEU52       0.0019
     33  CD1      -44.8960   21.3460    2.0480 C.3    52  LEU52       0.0001
     34  CD2      -44.1930   22.6450   -0.0150 C.3    52  LEU52       0.0001
     35  N        -40.8770   18.9720    1.3020 N.am   53  VAL53      -0.1980
     36  CA       -40.6860   17.6280    0.7130 C.3    53  VAL53       0.1595
     37  C        -40.5590   16.5370    1.8150 C.2    53  VAL53       0.2287
     38  O        -41.0660   15.4260    1.6470 O.2    53  VAL53      -0.2864
     39  CB       -39.4750   17.6080   -0.2530 C.3    53  VAL53       0.0276
     40  CG1      -39.2020   16.2160   -0.7400 C.3    53  VAL53       0.0022
     41  CG2      -39.7130   18.5810   -1.4450 C.3    53  VAL53       0.0022
     42  N        -44.1690   15.8530    2.9390 N.3    56  LEU56      -0.1231
     43  CA       -45.0100   15.1700    1.9390 C.3    56  LEU56       0.1693
     44  C        -44.4690   13.8160    1.4600 C.2    56  LEU56       0.2591
     45  O        -45.2240   12.8590    1.2940 O.2    56  LEU56      -0.2718
     46  CB       -45.1950   16.0690    0.7020 C.3    56  LEU56       0.0284
     47  CG       -45.9010   17.4060    0.8850 C.3    56  LEU56       0.0019
     48  CD1      -45.9330   18.1470   -0.4450 C.3    56  LEU56       0.0001
     49  CD2      -47.3160   17.2320    1.4300 C.3    56  LEU56       0.0001
     50  N        -43.1660   13.7510    1.2370 N.am   57  ALA57      -0.1980
     51  CA       -42.5400   12.5840    0.6280 C.3    57  ALA57       0.1597
     52  C        -41.8580   11.6730    1.6150 C.2    57  ALA57       0.2287
     53  O        -41.8250   10.4820    1.3770 O.2    57  ALA57      -0.2864
     54  CB       -41.5330   13.0430   -0.4260 C.3    57  ALA57       0.0319
     55  N        -39.8390    2.2550   -4.4780 N.3    77  TRP77      -0.1241
     56  CA       -40.1340    3.4160   -3.6700 C.3    77  TRP77       0.1605
     57  C        -39.2950    3.4560   -2.3570 C.2    77  TRP77       0.2264
     58  O        -38.9720    4.5340   -1.8990 O.2    77  TRP77      -0.2867
     59  CB       -41.6450    3.5620   -3.3860 C.3    77  TRP77       0.0550
     60  CG       -41.8700    4.7990   -2.6230 C.ar   77  TRP77       0.0003
     61  CD1      -42.1570    4.8890   -1.3180 C.ar   77  TRP77       0.0946
     62  CD2      -41.8100    6.1470   -3.1200 C.ar   77  TRP77       0.0152
     63  NE1      -42.2880    6.1820   -0.9500 N.ar   77  TRP77      -0.2442
     64  CE2      -42.0820    6.9940   -2.0330 C.ar   77  TRP77       0.0810
     65  CE3      -41.5560    6.7160   -4.3810 C.ar   77  TRP77       0.0012
     66  CZ2      -42.1090    8.4010   -2.1550 C.ar   77  TRP77       0.0191
     67  CZ3      -41.5830    8.1150   -4.5070 C.ar   77  TRP77       0.0001
     68  CH2      -41.8600    8.9380   -3.3910 C.ar   77  TRP77       0.0015
     69  N        -36.1660    5.0250   -3.4450 N.3    80  PHE80      -0.1241
     70  CA       -36.4580    6.4140   -3.8160 C.3    80  PHE80       0.1605
     71  C        -36.7050    7.2360   -2.5560 C.2    80  PHE80       0.2264
     72  O        -36.0730    8.2750   -2.3570 O.2    80  PHE80      -0.2867
     73  CB       -37.6760    6.5060   -4.7290 C.3    80  PHE80       0.0534
     74  CG       -37.7440    7.7830   -5.5260 C.ar   80  PHE80      -0.0203
     75  CD1      -37.3390    7.7990   -6.8680 C.ar   80  PHE80      -0.0042
     76  CD2      -38.2050    8.9650   -4.9610 C.ar   80  PHE80      -0.0042
     77  CE1      -37.3960    8.9770   -7.6210 C.ar   80  PHE80      -0.0003
     78  CE2      -38.2620   10.1490   -5.7200 C.ar   80  PHE80      -0.0003
     79  CZ       -37.8580   10.1480   -7.0430 C.ar   80  PHE80      -0.0000
     80  N        -34.6690   10.6260   -1.0630 N.3    84  ILE84      -0.1245
     81  CA       -35.2900   11.9380   -0.7860 C.3    84  ILE84       0.1561
     82  C        -35.0110   12.3650    0.6500 C.2    84  ILE84       0.2260
     83  O        -34.7060   13.5350    0.9160 O.2    84  ILE84      -0.2867
     84  CB       -36.8190   11.9160   -1.0060 C.3    84  ILE84       0.0252
     85  CG1      -37.1740   11.6320   -2.4760 C.3    84  ILE84       0.0019
     86  CG2      -37.4260   13.2340   -0.6450 C.3    84  ILE84       0.0019
     87  CD1      -38.6650   11.5180   -2.7040 C.3    84  ILE84       0.0001
@<TRIPOS>BOND
     1    77    79   ar
     2    77    75   ar
     3    79    78   ar
     4    75    74   ar
     5    78    76   ar
     6    74    76   ar
     7    74    73    1
     8    73    70    1
     9    67    65   ar
    10    67    68   ar
    11    55    56    1
    12    65    62   ar
    13    12    11    2
    14    70    69    1
    15    70    71    1
    16    56    59    1
    17    56    57    1
    18    68    66   ar
    19    59    60    1
    20    13    10    1
    21    11    10    1
    22    62    60   ar
    23    62    64   ar
    24    10     9    1
    25    87    85    1
    26    60    61   ar
    27    71    72    2
    28    85    84    1
    29    57    58    2
    30    66    64   ar
    31    64    63   ar
    32    26    25    1
    33    20    18    1
    34    41    39    1
    35     7     5    1
    36    61    63   ar
    37    25    22    1
    38    80    81    1
    39    84    81    1
    40    84    86    1
    41    81    82    1
    42    40    39    1
    43    18    19    1
    44    18    15    1
    45     4     3    2
    46    48    47    1
    47    54    51    1
    48    39    36    1
    49    34    32    1
    50     5     6    1
    51     5     2    1
    52     8     6    1
    53    22    23    1
    54    22    21    1
    55     3     2    1
    56    16    17    2
    57    16    15    1
    58    24    23    2
    59    51    50    1
    60    51    52    1
    61    15    14    1
    62    82    83    2
    63    46    47    1
    64    46    43    1
    65    36    35    1
    66    36    37    1
    67     2     1    1
    68    47    49    1
    69    32    31    1
    70    32    33    1
    71    50    44   am
    72    45    44    2
    73    35    29   am
    74    53    52    2
    75    44    43    1
    76    31    28    1
    77    38    37    2
    78    43    42    1
    79    29    30    2
    80    29    28    1
    81    28    27    1
