@<TRIPOS>MOLECULE
tmp/2rh1A00.pdb
 130 122 0 0 0
SMALL
GASTEIGER

@<TRIPOS>ATOM
      1  N        -27.2860   55.3350   21.1790 N.3   208  LEU208     -0.1245
      2  CA       -28.2350   56.4640   21.2090 C.3   208  LEU208      0.1561
      3  C        -29.3470   56.2680   20.1930 C.2   208  LEU208      0.2260
      4  O        -30.4410   56.7950   20.3520 O.2   208  LEU208     -0.2867
      5  CB       -27.5390   57.8140   21.0030 C.3   208  LEU208      0.0270
      6  CG       -26.9530   58.5930   22.1970 C.3   208  LEU208      0.0019
      7  CD1      -28.0310   58.9160   23.2480 C.3   208  LEU208      0.0001
      8  CD2      -25.7860   57.8860   22.8290 C.3   208  LEU208      0.0001
      9  N        -32.4990   56.7900   22.1630 N.3   212  GLU212     -0.1245
     10  CA       -33.2060   58.0460   21.7490 C.3   212  GLU212      0.1567
     11  C        -34.0750   57.8980   20.4990 C.2   212  GLU212      0.2260
     12  O        -35.1240   58.5410   20.3970 O.2   212  GLU212     -0.2867
     13  CB       -32.1890   59.1970   21.5480 C.3   212  GLU212      0.0388
     14  CG       -32.7480   60.5350   20.9870 C.3   212  GLU212      0.1160
     15  CD       -33.8340   61.1660   21.8570 C.2   212  GLU212      0.3649
     16  OE1      -33.7910   60.9800   23.0980 O.co2 212  GLU212     -0.2457
     17  OE2      -34.7360   61.8550   21.2910 O.co2 212  GLU212     -0.2457
     18  N        -40.0120   68.1120   19.5610 N.3   221  ASP221     -0.1225
     19  CA       -39.6100   67.3880   20.7760 C.3   221  ASP221      0.1805
     20  C        -40.6290   67.6150   21.9130 C.2   221  ASP221      0.2598
     21  O        -41.6930   68.2050   21.6980 O.2   221  ASP221     -0.2718
     22  CB       -38.1740   67.7780   21.1980 C.3   221  ASP221      0.1424
     23  CG       -38.0710   69.1830   21.8380 C.2   221  ASP221      0.3668
     24  OD1      -39.0870   69.8730   22.0690 O.co2 221  ASP221     -0.2456
     25  OD2      -36.9290   69.6000   22.1160 O.co2 221  ASP221     -0.2456
     26  N        -40.2970   67.1470   23.1120 N.am  222  THR222     -0.1939
     27  CA       -41.1630   67.3030   24.2990 C.3   222  THR222      0.2028
     28  C        -41.4640   68.7710   24.6740 C.2   222  THR222      0.2642
     29  O        -42.5620   69.0850   25.1520 O.2   222  THR222     -0.2714
     30  CB       -40.5320   66.6240   25.5140 C.3   222  THR222      0.1808
     31  OG1      -39.2120   67.1490   25.7160 O.3   222  THR222     -0.2208
     32  CG2      -40.4540   65.1000   25.3050 C.3   222  THR222      0.0379
     33  N        -40.4880   69.6530   24.4470 N.am  223  GLU223     -0.1976
     34  CA       -40.6170   71.0910   24.7200 C.3   223  GLU223      0.1602
     35  C        -41.2560   71.8630   23.5340 C.2   223  GLU223      0.2287
     36  O        -41.3390   73.0930   23.5760 O.2   223  GLU223     -0.2864
     37  CB       -39.2430   71.7100   25.0320 C.3   223  GLU223      0.0415
     38  CG       -38.3010   70.9400   26.0110 C.3   223  GLU223      0.1163
     39  CD       -38.7880   70.8910   27.4480 C.2   223  GLU223      0.3649
     40  OE1      -39.7490   71.6110   27.8060 O.co2 223  GLU223     -0.2457
     41  OE2      -38.1920   70.1170   28.2310 O.co2 223  GLU223     -0.2457
     42  N        -36.9230   69.3300   15.9600 N.3   227  THR227     -0.1218
     43  CA       -35.7830   68.4310   16.1290 C.3   227  THR227      0.1862
     44  C        -35.7300   67.4080   15.0000 C.2   227  THR227      0.2287
     45  O        -36.7520   67.1530   14.3380 O.2   227  THR227     -0.2866
     46  CB       -35.9220   67.7410   17.5000 C.3   227  THR227      0.1770
     47  OG1      -36.0330   68.7520   18.5020 O.3   227  THR227     -0.2211
     48  CG2      -34.7500   66.8240   17.8430 C.3   227  THR227      0.0375
     49  N        -32.3780   63.1950   18.3970 N.3   231  GLY231     -0.1210
     50  CA       -32.6220   64.3750   19.1970 C.3   231  GLY231      0.1956
     51  C        -31.7600   65.5820   18.8610 C.2   231  GLY231      0.2612
     52  O        -31.3490   66.2910   19.7550 O.2   231  GLY231     -0.2717
     53  N        -31.4800   65.8210   17.5740 N.am  232  HIS232     -0.1961
     54  CA       -30.7050   67.0070   17.1920 C.3   232  HIS232      0.1787
     55  C        -31.6680   68.1750   17.1340 C.2   232  HIS232      0.2620
     56  O        -32.6140   68.1370   16.3710 O.2   232  HIS232     -0.2715
     57  CB       -29.9850   66.8640   15.8400 C.3   232  HIS232      0.0785
     58  CG       -29.1900   68.0680   15.4700 C.ar  232  HIS232      0.0821
     59  ND1      -27.8280   68.1400   15.6440 N.ar  232  HIS232     -0.2267
     60  CD2      -29.5680   69.2550   14.9410 C.ar  232  HIS232      0.1154
     61  CE1      -27.3970   69.3200   15.2340 C.ar  232  HIS232      0.1986
     62  NE2      -28.4340   70.0160   14.8050 N.ar  232  HIS232     -0.2212
     63  N        -31.4200   69.2090   17.9370 N.am  233  LEU233     -0.1977
     64  CA       -32.2710   70.4000   17.9660 C.3   233  LEU233      0.1596
     65  C        -31.8710   71.3340   16.8400 C.2   233  LEU233      0.2287
     66  O        -30.6810   71.6540   16.6900 O.2   233  LEU233     -0.2864
     67  CB       -32.1480   71.1370   19.3050 C.3   233  LEU233      0.0297
     68  CG       -33.0920   72.3260   19.5450 C.3   233  LEU233      0.0022
     69  CD1      -34.4900   71.8210   19.7220 C.3   233  LEU233      0.0001
     70  CD2      -32.6820   73.1240   20.7600 C.3   233  LEU233      0.0001
     71  N        -22.7590   66.3410   17.3040 N.3   271  ASP271     -0.1239
     72  CA       -23.3620   66.5490   18.6150 C.3   271  ASP271      0.1674
     73  C        -22.5100   65.8790   19.6890 C.2   271  ASP271      0.2266
     74  O        -22.2720   66.4860   20.7370 O.2   271  ASP271     -0.2867
     75  CB       -24.7950   66.0380   18.6640 C.3   271  ASP271      0.1410
     76  CG       -25.7420   66.8280   17.7560 C.2   271  ASP271      0.3668
     77  OD1      -25.4440   67.9970   17.3920 O.co2 271  ASP271     -0.2456
     78  OD2      -26.7940   66.2770   17.4000 O.co2 271  ASP271     -0.2456
     79  N        -19.5300   68.0030   20.3160 N.3   274  ALA274     -0.1231
     80  CA       -19.9810   69.1260   21.1530 C.3   274  ALA274      0.1694
     81  C        -20.1780   68.7420   22.6430 C.2   274  ALA274      0.2591
     82  O        -19.7710   69.4950   23.5200 O.2   274  ALA274     -0.2718
     83  CB       -21.2610   69.6750   20.6200 C.3   274  ALA274      0.0304
     84  N        -20.7970   67.5840   22.8900 N.am  275  ALA275     -0.1980
     85  CA       -21.0850   67.0960   24.2440 C.3   275  ALA275      0.1597
     86  C        -19.7950   66.9030   25.0280 C.2   275  ALA275      0.2287
     87  O        -19.6840   67.3780   26.1490 O.2   275  ALA275     -0.2864
     88  CB       -21.8510   65.8070   24.1930 C.3   275  ALA275      0.0319
     89  N        -25.7430   62.9970   29.1600 N.3   304  VAL304     -0.1231
     90  CA       -25.6500   64.4300   28.7740 C.3   304  VAL304      0.1692
     91  C        -26.6050   64.7360   27.5850 C.2   304  VAL304      0.2592
     92  O        -27.2800   65.7690   27.5870 O.2   304  VAL304     -0.2718
     93  CB       -24.2030   64.8590   28.4450 C.3   304  VAL304      0.0266
     94  CG1      -24.1810   66.2140   27.7730 C.3   304  VAL304      0.0020
     95  CG2      -23.3450   64.8920   29.7150 C.3   304  VAL304      0.0020
     96  N        -26.6480   63.8380   26.5980 N.am  305  PHE305     -0.1962
     97  CA       -27.6410   63.9370   25.5070 C.3   305  PHE305      0.1771
     98  C        -29.0500   64.1330   26.0870 C.2   305  PHE305      0.2619
     99  O        -29.7460   65.0230   25.6840 O.2   305  PHE305     -0.2715
    100  CB       -27.6150   62.7120   24.5570 C.3   305  PHE305      0.0574
    101  CG       -26.8700   62.9330   23.2590 C.ar  305  PHE305     -0.0200
    102  CD1      -25.4890   63.0290   23.2380 C.ar  305  PHE305     -0.0042
    103  CD2      -27.5800   63.0370   22.0270 C.ar  305  PHE305     -0.0042
    104  CE1      -24.8000   63.2270   22.0210 C.ar  305  PHE305     -0.0003
    105  CE2      -26.9100   63.2370   20.8210 C.ar  305  PHE305     -0.0003
    106  CZ       -25.5090   63.3320   20.8230 C.ar  305  PHE305     -0.0000
    107  N        -29.4460   63.2960   27.0390 N.am  306  GLN306     -0.1977
    108  CA       -30.8180   63.3350   27.5750 C.3   306  GLN306      0.1601
    109  C        -31.1590   64.4800   28.5440 C.2   306  GLN306      0.2287
    110  O        -32.2490   65.0430   28.4550 O.2   306  GLN306     -0.2864
    111  CB       -31.1000   62.0120   28.2700 C.3   306  GLN306      0.0394
    112  CG       -32.5670   61.7570   28.6150 C.3   306  GLN306      0.0908
    113  CD       -32.7810   60.3780   29.1680 C.2   306  GLN306      0.2608
    114  OE1      -31.8340   59.6200   29.3400 O.2   306  GLN306     -0.2717
    115  NE2      -34.0250   60.0390   29.4500 N.am  306  GLN306     -0.0878
    116  N        -28.6750   67.1660   29.6090 N.3   308  GLY308     -0.1225
    117  CA       -27.7480   68.2940   29.5600 C.3   308  GLY308      0.1811
    118  C        -26.7020   68.1660   30.6510 C.2   308  GLY308      0.2280
    119  O        -26.8270   67.3300   31.5550 O.2   308  GLY308     -0.2866
    120  N        -34.3880   52.8370   29.4090 N.3   346  ARG346     -0.1245
    121  CA       -33.1470   53.5000   28.9790 C.3   346  ARG346      0.1563
    122  C        -32.1420   53.6270   30.1320 C.2   346  ARG346      0.2260
    123  O        -30.9500   53.2990   29.9840 O.2   346  ARG346     -0.2867
    124  CB       -33.4500   54.8800   28.4620 C.3   346  ARG346      0.0307
    125  CG       -32.2150   55.6970   28.1030 C.3   346  ARG346      0.0489
    126  CD       -32.6190   56.9710   27.3680 C.3   346  ARG346      0.2205
    127  NE       -31.4460   57.7320   26.9310 N.pl3 346  ARG346     -0.0865
    128  CZ       -31.4880   58.8400   26.1860 C.cat 346  ARG346      0.5346
    129  NH1      -32.6610   59.3530   25.7690 N.pl3 346  ARG346      0.1354
    130  NH2      -30.3540   59.4530   25.8440 N.pl3 346  ARG346      0.1354
@<TRIPOS>BOND
     1    45    44    2
     2    62    60   ar
     3    62    61   ar
     4    60    58   ar
     5    44    43    1
     6    61    59   ar
     7    58    59   ar
     8    58    57    1
     9    57    54    1
    10    42    43    1
    11    43    46    1
    12    56    55    2
    13    66    65    2
    14    65    64    1
    15    55    54    1
    16    55    63   am
    17    54    53    1
    18    71    72    1
    19    77    76   ar
    20    78    76   ar
    21    46    48    1
    22    46    47    1
    23    53    51   am
    24    76    75    1
    25    63    64    1
    26    64    67    1
    27    49    50    1
    28    72    75    1
    29    72    73    1
    30    51    50    1
    31    51    52    2
    32    67    68    1
    33    68    69    1
    34    68    70    1
    35    18    19    1
    36    73    74    2
    37     3     4    2
    38     3     2    1
    39    79    80    1
    40    12    11    2
    41    11    10    1
    42    83    80    1
    43    19    22    1
    44    19    20    1
    45   105   106   ar
    46   105   103   ar
    47   106   104   ar
    48    14    13    1
    49    14    15    1
    50     5     2    1
    51     5     6    1
    52    80    81    1
    53     1     2    1
    54    22    23    1
    55    17    15   ar
    56    13    10    1
    57    21    20    2
    58    10     9    1
    59    23    24   ar
    60    23    25   ar
    61    15    16   ar
    62    20    26   am
    63   104   102   ar
    64   103   101   ar
    65     6     8    1
    66     6     7    1
    67    81    84   am
    68    81    82    2
    69    84    85    1
    70    26    27    1
    71   102   101   ar
    72   101   100    1
    73    35    36    2
    74    35    34    1
    75    88    85    1
    76    85    86    1
    77    27    28    1
    78    27    30    1
    79    33    28   am
    80    33    34    1
    81   100    97    1
    82    28    29    2
    83    34    37    1
    84    86    87    2
    85    37    38    1
    86    32    30    1
    87    97    98    1
    88    97    96    1
    89    30    31    1
    90    99    98    2
    91   129   128    1
    92   130   128    1
    93    38    39    1
    94    98   107   am
    95   128   127    2
    96    96    91   am
    97   127   126    1
    98   107   108    1
    99   126   125    1
   100    39    40   ar
   101    39    41   ar
   102   108   111    1
   103   108   109    1
   104    91    92    2
   105    91    90    1
   106    94    93    1
   107   125   124    1
   108   111   112    1
   109    93    90    1
   110    93    95    1
   111   110   109    2
   112   124   121    1
   113   112   113    1
   114    90    89    1
   115   121   120    1
   116   121   122    1
   117   113   114    2
   118   113   115   am
   119   117   116    1
   120   117   118    1
   121   123   122    2
   122   118   119    2
