@<TRIPOS>MOLECULE
tmp/2rh1A01.pdb
 179 175 0 0 0
SMALL
GASTEIGER

@<TRIPOS>ATOM
      1  N        -37.6280    6.7520   -1.7230 N.3    81  TRP81      -0.1227
      2  CA       -37.9600    7.3580   -0.4310 C.3    81  TRP81       0.1737
      3  C        -36.7010    7.6350    0.3610 C.2    81  TRP81       0.2596
      4  O        -36.5040    8.7520    0.8070 O.2    81  TRP81      -0.2718
      5  CB       -38.8660    6.4370    0.3710 C.3    81  TRP81       0.0564
      6  CG       -39.1020    6.8550    1.7470 C.ar   81  TRP81       0.0003
      7  CD1      -39.8620    7.8780    2.1490 C.ar   81  TRP81       0.0946
      8  CD2      -38.5690    6.2480    2.9380 C.ar   81  TRP81       0.0152
      9  NE1      -39.8470    7.9670    3.5160 N.ar   81  TRP81      -0.2442
     10  CE2      -39.0620    6.9790    4.0250 C.ar   81  TRP81       0.0810
     11  CE3      -37.7200    5.1560    3.1870 C.ar   81  TRP81       0.0012
     12  CZ2      -38.7470    6.6690    5.3470 C.ar   81  TRP81       0.0191
     13  CZ3      -37.4040    4.8490    4.5320 C.ar   81  TRP81       0.0001
     14  CH2      -37.9190    5.6020    5.5750 C.ar   81  TRP81       0.0015
     15  N        -35.8610    6.6070    0.5180 N.am   82  THR82      -0.1953
     16  CA       -34.5700    6.7470    1.1900 C.3    82  THR82       0.1897
     17  C        -33.7070    7.8630    0.6210 C.2    82  THR82       0.2313
     18  O        -33.1160    8.6240    1.3850 O.2    82  THR82      -0.2863
     19  CB       -33.7570    5.4770    1.1020 C.3    82  THR82       0.1794
     20  OG1      -34.4910    4.4040    1.6990 O.3    82  THR82      -0.2208
     21  CG2      -32.4270    5.6450    1.8300 C.3    82  THR82       0.0378
     22  N        -35.1260   11.4030    1.5570 N.3    85  ASP85      -0.1225
     23  CA       -34.8230   11.5840    2.9730 C.3    85  ASP85       0.1805
     24  C        -33.4350   12.2180    3.1020 C.2    85  ASP85       0.2597
     25  O        -33.3110   13.3280    3.6000 O.2    85  ASP85      -0.2718
     26  CB       -34.9160   10.2250    3.6810 C.3    85  ASP85       0.1424
     27  CG       -35.0010   10.3250    5.1630 C.2    85  ASP85       0.3668
     28  OD1      -34.4530   11.2630    5.7710 O.co2  85  ASP85      -0.2456
     29  OD2      -35.6440    9.4190    5.7270 O.co2  85  ASP85      -0.2456
     30  N        -32.4150   11.5010    2.6400 N.am   86  VAL86      -0.1980
     31  CA       -31.0160   11.9510    2.6870 C.3    86  VAL86       0.1595
     32  C        -30.7900   13.2890    1.9340 C.2    86  VAL86       0.2287
     33  O        -30.0220   14.1320    2.4090 O.2    86  VAL86      -0.2864
     34  CB       -30.0700   10.8270    2.1580 C.3    86  VAL86       0.0276
     35  CG1      -28.6570   11.3380    1.8910 C.3    86  VAL86       0.0022
     36  CG2      -30.0540    9.6430    3.1470 C.3    86  VAL86       0.0022
     37  N        -32.3650   16.3910    4.0100 N.3    89  VAL89      -0.1231
     38  CA       -31.5090   16.6950    5.1670 C.3    89  VAL89       0.1692
     39  C        -30.1880   17.3510    4.7250 C.2    89  VAL89       0.2592
     40  O        -29.7290   18.3110    5.3690 O.2    89  VAL89      -0.2718
     41  CB       -31.2170   15.4390    6.0200 C.3    89  VAL89       0.0266
     42  CG1      -30.1990   15.7370    7.0980 C.3    89  VAL89       0.0020
     43  CG2      -32.5030   14.9160    6.6410 C.3    89  VAL89       0.0020
     44  N        -29.5920   16.8370    3.6350 N.am   90  THR90      -0.1953
     45  CA       -28.3290   17.3660    3.0960 C.3    90  THR90       0.1897
     46  C        -28.5010   18.7880    2.5750 C.2    90  THR90       0.2313
     47  O        -27.7100   19.6560    2.9160 O.2    90  THR90      -0.2863
     48  CB       -27.7670   16.4820    1.9490 C.3    90  THR90       0.1794
     49  OG1      -27.5120   15.1610    2.4330 O.3    90  THR90      -0.2208
     50  CG2      -26.4710   17.0660    1.3890 C.3    90  THR90       0.0378
     51  N        -32.3880    0.7850    6.5170 N.3   165  PHE165     -0.1241
     52  CA       -31.2370    1.4160    5.8900 C.3   165  PHE165      0.1605
     53  C        -29.9090    0.8650    6.4430 C.2   165  PHE165      0.2264
     54  O        -29.1600    1.5730    7.1330 O.2   165  PHE165     -0.2867
     55  CB       -31.3510    2.9470    6.0430 C.3   165  PHE165      0.0534
     56  CG       -30.3990    3.7300    5.1750 C.ar  165  PHE165     -0.0203
     57  CD1      -30.3000    3.4710    3.7930 C.ar  165  PHE165     -0.0042
     58  CD2      -29.6000    4.7360    5.7240 C.ar  165  PHE165     -0.0042
     59  CE1      -29.4280    4.1890    2.9840 C.ar  165  PHE165     -0.0003
     60  CE2      -28.7180    5.4650    4.9050 C.ar  165  PHE165     -0.0003
     61  CZ       -28.6380    5.1830    3.5280 C.ar  165  PHE165     -0.0000
     62  N        -26.2410    0.0220    6.0870 N.3   167  THR167     -0.1218
     63  CA       -25.1570    0.5590    5.2780 C.3   167  THR167      0.1862
     64  C        -23.8110   -0.0390    5.6440 C.2   167  THR167      0.2287
     65  O        -23.6360   -0.5650    6.7480 O.2   167  THR167     -0.2866
     66  CB       -25.0340    2.0920    5.4030 C.3   167  THR167      0.1770
     67  OG1      -24.3160    2.4310    6.5980 O.3   167  THR167     -0.2211
     68  CG2      -26.4150    2.7620    5.4090 C.3   167  THR167      0.0375
     69  N        -19.4200    4.0270    3.9160 N.3   171  TYR171     -0.1227
     70  CA       -20.5030    4.9250    3.5440 C.3   171  TYR171      0.1736
     71  C        -21.0010    5.6780    4.7530 C.2   171  TYR171      0.2595
     72  O        -21.1620    6.8890    4.6970 O.2   171  TYR171     -0.2718
     73  CB       -21.6850    4.1680    2.9350 C.3   171  TYR171      0.0548
     74  CG       -22.8970    5.0540    2.7140 C.ar  171  TYR171     -0.0200
     75  CD1      -23.0090    5.8310    1.5660 C.ar  171  TYR171     -0.0009
     76  CD2      -23.9320    5.1130    3.6550 C.ar  171  TYR171     -0.0009
     77  CE1      -24.1280    6.6570    1.3520 C.ar  171  TYR171      0.0417
     78  CE2      -25.0510    5.9330    3.4530 C.ar  171  TYR171      0.0417
     79  CZ       -25.1410    6.7020    2.2980 C.ar  171  TYR171      0.1957
     80  OH       -26.2360    7.5090    2.0880 O.3   171  TYR171     -0.2866
     81  N        -21.2450    4.9420    5.8400 N.am  172  ALA172     -0.1980
     82  CA       -21.7230    5.5310    7.1000 C.3   172  ALA172      0.1597
     83  C        -20.8400    6.6970    7.5330 C.2   172  ALA172      0.2287
     84  O        -21.3540    7.7390    7.8900 O.2   172  ALA172     -0.2864
     85  CB       -21.7890    4.4860    8.1830 C.3   172  ALA172      0.0319
     86  N        -20.3950    9.4740    4.0540 N.3   175  SER175     -0.1202
     87  CA       -21.6330   10.2020    3.7480 C.3   175  SER175      0.2020
     88  C        -22.0300   11.1600    4.8610 C.2   175  SER175      0.2619
     89  O        -22.4570   12.2740    4.5790 O.2   175  SER175     -0.2717
     90  CB       -22.7980    9.2610    3.4920 C.3   175  SER175      0.2103
     91  OG       -23.9440   10.0100    3.1180 O.3   175  SER175     -0.2182
     92  N        -21.8900   10.7300    6.1140 N.am  176  SER176     -0.1951
     93  CA       -22.2660   11.5700    7.2500 C.3   176  SER176      0.1924
     94  C        -21.2830   12.7420    7.4420 C.2   176  SER176      0.2314
     95  O        -21.6950   13.8220    7.8630 O.2   176  SER176     -0.2863
     96  CB       -22.4280   10.7280    8.5250 C.3   176  SER176      0.2116
     97  OG       -21.2920    9.9410    8.7760 O.3   176  SER176     -0.2180
     98  N        -22.0230   15.0250    4.0090 N.3   179  SER179     -0.1217
     99  CA       -23.3770   15.5850    3.9720 C.3   179  SER179      0.1889
    100  C        -23.7200   16.4570    5.1650 C.2   179  SER179      0.2288
    101  O        -24.4370   17.4370    4.9950 O.2   179  SER179     -0.2866
    102  CB       -24.4200   14.4880    3.9220 C.3   179  SER179      0.2089
    103  OG       -24.2310   13.6330    2.8140 O.3   179  SER179     -0.2183
    104  N        -30.6570   17.2190   14.8100 N.3   386  TRP386     -0.1241
    105  CA       -29.9380   16.1920   14.0200 C.3   386  TRP386      0.1605
    106  C        -28.6350   15.6710   14.6350 C.2   386  TRP386      0.2264
    107  O        -28.2500   14.5440   14.3300 O.2   386  TRP386     -0.2867
    108  CB       -29.6410   16.7030   12.5990 C.3   386  TRP386      0.0550
    109  CG       -30.8530   16.7380   11.7660 C.ar  386  TRP386      0.0003
    110  CD1      -31.5430   17.8320   11.3810 C.ar  386  TRP386      0.0946
    111  CD2      -31.5330   15.6130   11.2120 C.ar  386  TRP386      0.0152
    112  NE1      -32.6210   17.4690   10.6140 N.ar  386  TRP386     -0.2442
    113  CE2      -32.6360   16.1070   10.4960 C.ar  386  TRP386      0.0810
    114  CE3      -31.3140   14.2280   11.2540 C.ar  386  TRP386      0.0012
    115  CZ2      -33.5230   15.2740    9.8220 C.ar  386  TRP386      0.0191
    116  CZ3      -32.2020   13.3910   10.5810 C.ar  386  TRP386      0.0001
    117  CH2      -33.2910   13.9200    9.8750 C.ar  386  TRP386      0.0015
    118  N        -28.6410   12.0420   16.2550 N.3   389  PHE389     -0.1227
    119  CA       -28.8070   11.0380   15.2170 C.3   389  PHE389      0.1736
    120  C        -27.4790   10.7460   14.5190 C.2   389  PHE389      0.2595
    121  O        -27.0720    9.5760   14.4120 O.2   389  PHE389     -0.2718
    122  CB       -29.8530   11.5050   14.1890 C.3   389  PHE389      0.0547
    123  CG       -30.0140   10.5780   13.0470 C.ar  389  PHE389     -0.0202
    124  CD1      -30.8500    9.4750   13.1570 C.ar  389  PHE389     -0.0042
    125  CD2      -29.3350   10.7950   11.8590 C.ar  389  PHE389     -0.0042
    126  CE1      -31.0080    8.6100   12.1140 C.ar  389  PHE389     -0.0003
    127  CE2      -29.4890    9.9260   10.7980 C.ar  389  PHE389     -0.0003
    128  CZ       -30.3270    8.8290   10.9230 C.ar  389  PHE389     -0.0000
    129  N        -26.8180   11.8110   14.0520 N.am  390  PHE390     -0.1976
    130  CA       -25.5220   11.6860   13.3470 C.3   390  PHE390      0.1639
    131  C        -24.3460   11.2540   14.2220 C.2   390  PHE390      0.2290
    132  O        -23.3860   10.6770   13.6970 O.2   390  PHE390     -0.2864
    133  CB       -25.1800   12.9710   12.5850 C.3   390  PHE390      0.0560
    134  CG       -25.9420   13.1080   11.2950 C.ar  390  PHE390     -0.0200
    135  CD1      -27.1030   13.8640   11.2260 C.ar  390  PHE390     -0.0042
    136  CD2      -25.4940   12.4670   10.1490 C.ar  390  PHE390     -0.0042
    137  CE1      -27.8000   13.9900   10.0580 C.ar  390  PHE390     -0.0003
    138  CE2      -26.1910   12.5860    8.9600 C.ar  390  PHE390     -0.0003
    139  CZ       -27.3490   13.3520    8.9140 C.ar  390  PHE390     -0.0000
    140  N        -24.6510    7.4310   14.1760 N.3   393  ASN393     -0.1240
    141  CA       -24.1120    6.8350   12.9360 C.3   393  ASN393      0.1653
    142  C        -22.6410    6.4950   13.0850 C.2   393  ASN393      0.2266
    143  O        -22.2060    5.4090   12.7090 O.2   393  ASN393     -0.2867
    144  CB       -24.2500    7.7820   11.7450 C.3   393  ASN393      0.1155
    145  CG       -25.6730    7.9610   11.2870 C.2   393  ASN393      0.2627
    146  OD1      -26.5840    7.3060   11.7770 O.2   393  ASN393     -0.2716
    147  ND2      -25.8710    8.8630   10.3270 N.am  393  ASN393     -0.0877
    148  N        -32.4230    4.8330   18.1770 N.3   408  TYR408     -0.1241
    149  CA       -31.9550    5.3660   16.8920 C.3   408  TYR408      0.1605
    150  C        -33.1060    5.8920   16.0250 C.2   408  TYR408      0.2264
    151  O        -32.9810    6.9510   15.4140 O.2   408  TYR408     -0.2867
    152  CB       -31.1840    4.2940   16.1350 C.3   408  TYR408      0.0534
    153  CG       -30.5340    4.7700   14.8550 C.ar  408  TYR408     -0.0201
    154  CD1      -30.9840    4.3380   13.6100 C.ar  408  TYR408     -0.0009
    155  CD2      -29.4700    5.6500   14.8940 C.ar  408  TYR408     -0.0009
    156  CE1      -30.3780    4.7800   12.4350 C.ar  408  TYR408      0.0417
    157  CE2      -28.8590    6.0980   13.7470 C.ar  408  TYR408      0.0417
    158  CZ       -29.3130    5.6630   12.5130 C.ar  408  TYR408      0.1957
    159  OH       -28.7160    6.1000   11.3570 O.3   408  TYR408     -0.2866
    160  N        -34.0530    9.8620   14.9320 N.3   412  ASN412     -0.1240
    161  CA       -34.3370   10.2280   13.5510 C.3   412  ASN412      0.1653
    162  C        -35.6020   11.0760   13.4910 C.2   412  ASN412      0.2266
    163  O        -35.6540   12.0570   12.7410 O.2   412  ASN412     -0.2867
    164  CB       -34.4900    8.9700   12.6790 C.3   412  ASN412      0.1155
    165  CG       -34.2760    9.2310   11.1700 C.2   412  ASN412      0.2627
    166  OD1      -33.9330    8.3020   10.4390 O.2   412  ASN412     -0.2716
    167  ND2      -34.4710   10.4710   10.7090 N.am  412  ASN412     -0.0877
    168  N        -36.6340   14.5450   11.9090 N.3   416  TYR416     -0.1241
    169  CA       -37.8250   14.8000   11.0500 C.3   416  TYR416      0.1605
    170  C        -38.6680   15.9700   11.5260 C.2   416  TYR416      0.2264
    171  O        -38.9490   16.8890   10.7540 O.2   416  TYR416     -0.2867
    172  CB       -38.7460   13.5700   10.9600 C.3   416  TYR416      0.0534
    173  CG       -38.2560   12.3590   10.1390 C.ar  416  TYR416     -0.0201
    174  CD1      -38.8690   11.1210   10.2880 C.ar  416  TYR416     -0.0009
    175  CD2      -37.2000   12.4480    9.2310 C.ar  416  TYR416     -0.0009
    176  CE1      -38.4590   10.0250    9.5710 C.ar  416  TYR416      0.0417
    177  CE2      -36.7870   11.3580    8.5140 C.ar  416  TYR416      0.0417
    178  CZ       -37.4200   10.1480    8.6880 C.ar  416  TYR416      0.1957
    179  OH       -37.0150    9.0610    7.9790 O.3   416  TYR416     -0.2866
@<TRIPOS>BOND
     1     1     2    1
     2     2     3    1
     3     2     5    1
     4     3    15   am
     5     3     4    2
     6     5     6    1
     7    15    16    1
     8    17    16    1
     9    17    18    2
    10    19    16    1
    11    19    20    1
    12    19    21    1
    13    77    75   ar
    14    77    79   ar
    15    50    48    1
    16    22    23    1
    17    75    74   ar
    18     6     7   ar
    19     6     8   ar
    20    35    34    1
    21    32    33    2
    22    32    31    1
    23    48    49    1
    24    48    45    1
    25    80    79    1
    26     7     9   ar
    27    34    31    1
    28    34    36    1
    29    79    78   ar
    30    46    47    2
    31    46    45    1
    32    30    31    1
    33    30    24   am
    34    74    73    1
    35    74    76   ar
    36   103   102    1
    37    73    70    1
    38     8    11   ar
    39     8    10   ar
    40    23    24    1
    41    23    26    1
    42    59    61   ar
    43    59    57   ar
    44    45    44    1
    45    24    25    2
    46    91    90    1
    47    11    13   ar
    48    78    76   ar
    49    90    87    1
    50     9    10   ar
    51    61    60   ar
    52    70    69    1
    53    70    71    1
    54    44    39   am
    55    26    27    1
    56    87    86    1
    57    87    88    1
    58    57    56   ar
    59   102    99    1
    60    99    98    1
    61    99   100    1
    62    37    38    1
    63    10    12   ar
    64    13    14   ar
    65    89    88    2
    66    72    71    2
    67    39    38    1
    68    39    40    2
    69    71    81   am
    70    88    92   am
    71    60    58   ar
    72   101   100    2
    73    27    29   ar
    74    27    28   ar
    75    38    41    1
    76    56    58   ar
    77    56    55    1
    78    63    66    1
    79    63    64    1
    80    63    62    1
    81    12    14   ar
    82    66    68    1
    83    66    67    1
    84    64    65    2
    85    81    82    1
    86    52    55    1
    87    52    53    1
    88    52    51    1
    89    41    43    1
    90    41    42    1
    91    92    93    1
    92    53    54    2
    93    82    83    1
    94    82    85    1
    95    93    94    1
    96    93    96    1
    97    94    95    2
    98    83    84    2
    99   179   178    1
   100   177   178   ar
   101   177   175   ar
   102    96    97    1
   103   178   176   ar
   104   139   138   ar
   105   139   137   ar
   106   138   136   ar
   107   175   173   ar
   108   176   174   ar
   109   115   117   ar
   110   115   113   ar
   111   117   116   ar
   112   137   135   ar
   113   173   174   ar
   114   173   172    1
   115   136   134   ar
   116   147   145   am
   117   166   165    2
   118   113   112   ar
   119   113   111   ar
   120   116   114   ar
   121   112   110   ar
   122   167   165   am
   123   171   170    2
   124   127   128   ar
   125   127   125   ar
   126   128   126   ar
   127   172   169    1
   128   169   170    1
   129   169   168    1
   130   165   164    1
   131   111   114   ar
   132   111   109   ar
   133   135   134   ar
   134   145   144    1
   135   145   146    2
   136   134   133    1
   137   159   158    1
   138   110   109   ar
   139   144   141    1
   140   109   108    1
   141   125   123   ar
   142   126   124   ar
   143   156   158   ar
   144   156   154   ar
   145   158   157   ar
   146   133   130    1
   147   108   105    1
   148   164   161    1
   149   143   142    2
   150   163   162    2
   151   141   142    1
   152   141   140    1
   153   123   124   ar
   154   123   122    1
   155   130   129    1
   156   130   131    1
   157   162   161    1
   158   161   160    1
   159   154   153   ar
   160   132   131    2
   161   157   155   ar
   162   105   106    1
   163   105   104    1
   164   129   120   am
   165   122   119    1
   166   107   106    2
   167   121   120    2
   168   120   119    1
   169   153   155   ar
   170   153   152    1
   171   119   118    1
   172   151   150    2
   173   150   149    1
   174   152   149    1
   175   149   148    1
