@<TRIPOS>MOLECULE
tmp/2rh1A03.pdb
 94 88 0 0 0
SMALL
GASTEIGER

@<TRIPOS>ATOM
      1  N        -47.2290   15.7500   10.2470 N.3    16  VAL16      -0.1231
      2  CA       -47.1950   15.9670    8.8010 C.3    16  VAL16       0.1692
      3  C        -47.9510   17.2510    8.4160 C.2    16  VAL16       0.2591
      4  O        -47.4450   18.0530    7.6290 O.2    16  VAL16      -0.2718
      5  CB       -47.7690   14.7550    8.0410 C.3    16  VAL16       0.0266
      6  CG1      -47.9670   15.0790    6.5670 C.3    16  VAL16       0.0020
      7  CG2      -46.8560   13.5330    8.2190 C.3    16  VAL16       0.0020
      8  N        -49.1500   17.4340    8.9720 N.am   17  LEU17      -0.1980
      9  CA       -49.9540   18.6380    8.7190 C.3    17  LEU17       0.1596
     10  C        -49.2190   19.9010    9.1630 C.2    17  LEU17       0.2287
     11  O        -49.2460   20.9000    8.4600 O.2    17  LEU17      -0.2864
     12  CB       -51.3060   18.5550    9.4330 C.3    17  LEU17       0.0297
     13  CG       -52.3740   19.5900    9.0620 C.3    17  LEU17       0.0022
     14  CD1      -52.8350   19.4140    7.6160 C.3    17  LEU17       0.0001
     15  CD2      -53.5550   19.4850   10.0080 C.3    17  LEU17       0.0001
     16  N        -46.2160   20.6060    6.6590 N.3    20  VAL20      -0.1231
     17  CA       -46.7210   21.0510    5.3600 C.3    20  VAL20       0.1692
     18  C        -47.3900   22.4400    5.4630 C.2    20  VAL20       0.2592
     19  O        -47.1150   23.3050    4.6380 O.2    20  VAL20      -0.2718
     20  CB       -47.6920   20.0110    4.7220 C.3    20  VAL20       0.0266
     21  CG1      -48.1780   20.4890    3.3640 C.3    20  VAL20       0.0020
     22  CG2      -47.0080   18.6420    4.5850 C.3    20  VAL20       0.0020
     23  N        -48.2480   22.6400    6.4680 N.am   21  PHE21      -0.1976
     24  CA       -48.9510   23.9160    6.6540 C.3    21  PHE21       0.1639
     25  C        -47.9940   25.0770    6.8030 C.2    21  PHE21       0.2290
     26  O        -48.0390   26.0250    6.0170 O.2    21  PHE21      -0.2864
     27  CB       -49.8690   23.8660    7.8860 C.3    21  PHE21       0.0560
     28  CG       -50.6690   25.1230    8.1030 C.ar   21  PHE21      -0.0200
     29  CD1      -51.9320   25.2540    7.5540 C.ar   21  PHE21      -0.0042
     30  CD2      -50.1610   26.1760    8.8550 C.ar   21  PHE21      -0.0042
     31  CE1      -52.6780   26.4140    7.7510 C.ar   21  PHE21      -0.0003
     32  CE2      -50.9050   27.3360    9.0520 C.ar   21  PHE21      -0.0003
     33  CZ       -52.1620   27.4500    8.4980 C.ar   21  PHE21      -0.0000
     34  N        -45.6310   25.6560    3.7300 N.3    24  VAL24      -0.1231
     35  CA       -46.4530   26.2450    2.6870 C.3    24  VAL24       0.1692
     36  C        -46.6160   27.7310    2.9940 C.2    24  VAL24       0.2591
     37  O        -46.4630   28.5580    2.1080 O.2    24  VAL24      -0.2718
     38  CB       -47.8600   25.5990    2.5750 C.3    24  VAL24       0.0266
     39  CG1      -48.8370   26.5490    1.9030 C.3    24  VAL24       0.0020
     40  CG2      -47.7840   24.2860    1.8290 C.3    24  VAL24       0.0020
     41  N        -46.9210   28.0490    4.2560 N.am   25  LEU25      -0.1980
     42  CA       -47.1560   29.4410    4.6880 C.3    25  LEU25       0.1596
     43  C        -45.9130   30.3350    4.5000 C.2    25  LEU25       0.2287
     44  O        -46.0430   31.4940    4.1200 O.2    25  LEU25      -0.2864
     45  CB       -47.6320   29.4820    6.1470 C.3    25  LEU25       0.0297
     46  CG       -48.4220   30.7050    6.5930 C.3    25  LEU25       0.0022
     47  CD1      -49.8120   30.7160    5.9730 C.3    25  LEU25       0.0001
     48  CD2      -48.5300   30.7380    8.1090 C.3    25  LEU25       0.0001
     49  N        -45.3690   30.8400    0.4910 N.3    28  THR28      -0.1218
     50  CA       -46.4030   31.7700    0.0670 C.3    28  THR28       0.1862
     51  C        -46.0780   33.2110    0.4540 C.2    28  THR28       0.2287
     52  O        -46.1880   34.0890   -0.3720 O.2    28  THR28      -0.2866
     53  CB       -47.7800   31.3990    0.6860 C.3    28  THR28       0.1770
     54  OG1      -48.0820   30.0190    0.4340 O.3    28  THR28      -0.2211
     55  CG2      -48.8960   32.2810    0.1100 C.3    28  THR28       0.0375
     56  N        -45.2710   36.0120   -2.1840 N.3    32  LYS32      -0.1245
     57  CA       -46.3360   37.0100   -2.3230 C.3    32  LYS32       0.1561
     58  C        -45.9320   38.4380   -1.9650 C.2    32  LYS32       0.2260
     59  O        -46.2820   39.3710   -2.6940 O.2    32  LYS32      -0.2867
     60  CB       -47.5320   36.6050   -1.4660 C.3    32  LYS32       0.0271
     61  CG       -48.6670   37.5780   -1.5300 C.3    32  LYS32       0.0035
     62  CD       -49.9590   36.9500   -1.1640 C.3    32  LYS32       0.0206
     63  CE       -51.0280   37.9830   -1.1890 C.3    32  LYS32       0.1093
     64  NZ       -52.2990   37.3330   -1.0810 N.3    32  LYS32      -0.1314
     65  N        -44.1690   15.8530    2.9390 N.3    56  LEU56      -0.1245
     66  CA       -45.0100   15.1700    1.9390 C.3    56  LEU56       0.1561
     67  C        -44.4690   13.8160    1.4600 C.2    56  LEU56       0.2260
     68  O        -45.2240   12.8590    1.2940 O.2    56  LEU56      -0.2867
     69  CB       -45.1950   16.0690    0.7020 C.3    56  LEU56       0.0270
     70  CG       -45.9010   17.4060    0.8850 C.3    56  LEU56       0.0019
     71  CD1      -45.9330   18.1470   -0.4450 C.3    56  LEU56       0.0001
     72  CD2      -47.3160   17.2320    1.4300 C.3    56  LEU56       0.0001
     73  N        -52.1770   36.4880    5.4770 N.3   439  LEU439     -0.1231
     74  CA       -52.4750   35.2420    4.7630 C.3   439  LEU439      0.1693
     75  C        -53.5270   34.3750    5.4630 C.2   439  LEU439      0.2592
     76  O        -54.2550   33.6500    4.7930 O.2   439  LEU439     -0.2718
     77  CB       -51.2090   34.4060    4.5670 C.3   439  LEU439      0.0284
     78  CG       -50.0550   35.0210    3.7780 C.3   439  LEU439      0.0019
     79  CD1      -48.8050   34.1390    3.9350 C.3   439  LEU439      0.0001
     80  CD2      -50.4110   35.2250    2.3150 C.3   439  LEU439      0.0001
     81  N        -53.5990   34.4550    6.7960 N.am  440  LEU440     -0.1966
     82  CA       -54.5980   33.7180    7.5880 C.3   440  LEU440      0.1728
     83  C        -55.8480   34.5730    7.9010 C.2   440  LEU440      0.2616
     84  O        -56.5730   34.2800    8.8600 O.2   440  LEU440     -0.2715
     85  CB       -53.9600   33.1740    8.8780 C.3   440  LEU440      0.0311
     86  CG       -52.7630   32.2330    8.7010 C.3   440  LEU440      0.0022
     87  CD1      -52.1500   31.8870   10.0480 C.3   440  LEU440      0.0001
     88  CD2      -53.1670   30.9760    7.9820 C.3   440  LEU440      0.0001
     89  N        -56.0830   35.6190    7.0880 N.am  441  CYS441     -0.1968
     90  CA       -57.2800   36.4770    7.1520 C.3   441  CYS441      0.1712
     91  C        -57.5360   37.0890    8.5300 C.2   441  CYS441      0.2296
     92  O        -58.6130   36.9110    9.1140 O.2   441  CYS441     -0.2864
     93  CB       -58.5000   35.6830    6.6740 C.3   441  CYS441      0.0983
     94  SG       -58.2430   34.8890    5.0790 S.3   441  CYS441     -0.0798
@<TRIPOS>BOND
     1    59    58    2
     2    57    56    1
     3    57    58    1
     4    57    60    1
     5    61    60    1
     6    61    62    1
     7    63    62    1
     8    63    64    1
     9    71    70    1
    10    52    51    2
    11    50    51    1
    12    50    49    1
    13    50    53    1
    14    55    53    1
    15    54    53    1
    16    69    70    1
    17    69    66    1
    18    70    72    1
    19    68    67    2
    20    67    66    1
    21    40    38    1
    22    39    38    1
    23    66    65    1
    24    37    36    2
    25    80    78    1
    26    38    35    1
    27    35    36    1
    28    35    34    1
    29    36    41   am
    30    21    20    1
    31    78    79    1
    32    78    77    1
    33    44    43    2
    34    41    42    1
    35    43    42    1
    36    77    74    1
    37    22    20    1
    38    19    18    2
    39    42    45    1
    40    20    17    1
    41    74    75    1
    42    74    73    1
    43    76    75    2
    44    94    93    1
    45    17    18    1
    46    17    16    1
    47    75    81   am
    48    18    23   am
    49    47    46    1
    50    26    25    2
    51    45    46    1
    52    23    24    1
    53     6     5    1
    54    46    48    1
    55    24    25    1
    56    24    27    1
    57    93    90    1
    58    81    82    1
    59    89    90    1
    60    89    83   am
    61    90    91    1
    62    29    31   ar
    63    29    28   ar
    64    82    83    1
    65    82    85    1
    66    14    13    1
    67     4     3    2
    68    31    33   ar
    69    27    28    1
    70    83    84    2
    71    88    86    1
    72     5     7    1
    73     5     2    1
    74    28    30   ar
    75     3     2    1
    76     3     8   am
    77    11    10    2
    78    33    32   ar
    79    91    92    2
    80    86    85    1
    81    86    87    1
    82     9     8    1
    83     9    10    1
    84     9    12    1
    85     2     1    1
    86    30    32   ar
    87    13    12    1
    88    13    15    1
