@<TRIPOS>MOLECULE
tmp/2rh1A02.pdb
 122 115 0 0 0
SMALL
GASTEIGER

@<TRIPOS>ATOM
      1  N        -34.6400   33.9690   -0.0230 N.3    42  TYR42      -0.1241
      2  CA       -34.5780   33.0020   -1.1330 C.3    42  TYR42       0.1605
      3  C        -33.9950   31.6950   -0.5990 C.2    42  TYR42       0.2264
      4  O        -34.4790   30.6300   -0.9420 O.2    42  TYR42      -0.2867
      5  CB       -33.7810   33.5290   -2.3410 C.3    42  TYR42       0.0534
      6  CG       -34.5360   34.4960   -3.2450 C.ar   42  TYR42      -0.0201
      7  CD1      -35.2650   35.5530   -2.7320 C.ar   42  TYR42      -0.0009
      8  CD2      -34.5140   34.3480   -4.6200 C.ar   42  TYR42      -0.0009
      9  CE1      -35.9570   36.4440   -3.5550 C.ar   42  TYR42       0.0417
     10  CE2      -35.2000   35.2290   -5.4530 C.ar   42  TYR42       0.0417
     11  CZ       -35.9210   36.2780   -4.9180 C.ar   42  TYR42       0.1957
     12  OH       -36.6030   37.1490   -5.7710 O.3    42  TYR42      -0.2866
     13  N        -36.5540   30.1000    1.5060 N.3    45  THR45      -0.1203
     14  CA       -37.5000   29.3970    0.6440 C.3    45  THR45       0.1994
     15  C        -36.9370   28.0400    0.2640 C.2    45  THR45       0.2618
     16  O        -37.6630   27.0450    0.2960 O.2    45  THR45      -0.2717
     17  CB       -37.8400   30.2080   -0.6180 C.3    45  THR45       0.1784
     18  OG1      -38.4910   31.4240   -0.2280 O.3    45  THR45      -0.2211
     19  CG2      -38.7470   29.4180   -1.5480 C.3    45  THR45       0.0376
     20  N        -35.6540   28.0000   -0.0910 N.am   46  SER46      -0.1951
     21  CA       -34.9810   26.7400   -0.4090 C.3    46  SER46       0.1924
     22  C        -35.0300   25.7750    0.8000 C.2    46  SER46       0.2314
     23  O        -35.2700   24.5700    0.6380 O.2    46  SER46      -0.2863
     24  CB       -33.5460   27.0140   -0.8770 C.3    46  SER46       0.2116
     25  OG       -32.8200   25.8290   -1.0840 O.3    46  SER46      -0.2180
     26  N        -38.5780   24.4610    1.1840 N.3    49  CYS49      -0.1235
     27  CA       -38.9110   23.4110    0.1760 C.3    49  CYS49       0.1677
     28  C        -38.3990   22.0390    0.6010 C.2    49  CYS49       0.2270
     29  O        -39.0840   21.0470    0.4010 O.2    49  CYS49      -0.2867
     30  CB       -38.3500   23.7520   -1.1950 C.3    49  CYS49       0.0956
     31  SG       -39.1350   25.1620   -1.9700 S.3    49  CYS49      -0.0801
     32  N        -40.8770   18.9720    1.3020 N.3    53  VAL53      -0.1245
     33  CA       -40.6860   17.6280    0.7130 C.3    53  VAL53       0.1561
     34  C        -40.5590   16.5370    1.8150 C.2    53  VAL53       0.2260
     35  O        -41.0660   15.4260    1.6470 O.2    53  VAL53      -0.2867
     36  CB       -39.4750   17.6080   -0.2530 C.3    53  VAL53       0.0252
     37  CG1      -39.2020   16.2160   -0.7400 C.3    53  VAL53       0.0019
     38  CG2      -39.7130   18.5810   -1.4450 C.3    53  VAL53       0.0019
     39  N        -43.1660   13.7510    1.2370 N.3    57  ALA57      -0.1245
     40  CA       -42.5400   12.5840    0.6280 C.3    57  ALA57       0.1562
     41  C        -41.8580   11.6730    1.6150 C.2    57  ALA57       0.2260
     42  O        -41.8250   10.4820    1.3770 O.2    57  ALA57      -0.2867
     43  CB       -41.5330   13.0430   -0.4260 C.3    57  ALA57       0.0290
     44  N        -36.1660    5.0250   -3.4450 N.3    80  PHE80      -0.1241
     45  CA       -36.4580    6.4140   -3.8160 C.3    80  PHE80       0.1605
     46  C        -36.7050    7.2360   -2.5560 C.2    80  PHE80       0.2264
     47  O        -36.0730    8.2750   -2.3570 O.2    80  PHE80      -0.2867
     48  CB       -37.6760    6.5060   -4.7290 C.3    80  PHE80       0.0534
     49  CG       -37.7440    7.7830   -5.5260 C.ar   80  PHE80      -0.0203
     50  CD1      -37.3390    7.7990   -6.8680 C.ar   80  PHE80      -0.0042
     51  CD2      -38.2050    8.9650   -4.9610 C.ar   80  PHE80      -0.0042
     52  CE1      -37.3960    8.9770   -7.6210 C.ar   80  PHE80      -0.0003
     53  CE2      -38.2620   10.1490   -5.7200 C.ar   80  PHE80      -0.0003
     54  CZ       -37.8580   10.1480   -7.0430 C.ar   80  PHE80      -0.0000
     55  N        -34.6690   10.6260   -1.0630 N.3    84  ILE84      -0.1245
     56  CA       -35.2900   11.9380   -0.7860 C.3    84  ILE84       0.1561
     57  C        -35.0110   12.3650    0.6500 C.2    84  ILE84       0.2260
     58  O        -34.7060   13.5350    0.9160 O.2    84  ILE84      -0.2867
     59  CB       -36.8190   11.9160   -1.0060 C.3    84  ILE84       0.0252
     60  CG1      -37.1740   11.6320   -2.4760 C.3    84  ILE84       0.0019
     61  CG2      -37.4260   13.2340   -0.6450 C.3    84  ILE84       0.0019
     62  CD1      -38.6650   11.5180   -2.7040 C.3    84  ILE84       0.0001
     63  N        -31.4550   13.4670    0.7800 N.3    87  LEU87      -0.1245
     64  CA       -31.3560   14.7170   -0.0150 C.3    87  LEU87       0.1561
     65  C        -31.8170   15.9290    0.7730 C.2    87  LEU87       0.2260
     66  O        -31.0840   16.9090    0.8950 O.2    87  LEU87      -0.2867
     67  CB       -32.1930   14.6210   -1.3140 C.3    87  LEU87       0.0270
     68  CG       -32.3570   15.8590   -2.2380 C.3    87  LEU87       0.0019
     69  CD1      -31.0140   16.3990   -2.7350 C.3    87  LEU87       0.0001
     70  CD2      -33.2780   15.5420   -3.4310 C.3    87  LEU87       0.0001
     71  N        -30.2430   32.4650   -6.9000 N.3   123  ARG123     -0.1245
     72  CA       -30.9450   31.3140   -7.5110 C.3   123  ARG123      0.1563
     73  C        -29.9830   30.2490   -8.0220 C.2   123  ARG123      0.2260
     74  O        -30.2720   29.0570   -7.9130 O.2   123  ARG123     -0.2867
     75  CB       -31.8360   31.7090   -8.6900 C.3   123  ARG123      0.0307
     76  CG       -33.2840   32.0950   -8.3760 C.3   123  ARG123      0.0489
     77  CD       -33.5760   33.5560   -8.5980 C.3   123  ARG123      0.2205
     78  NE       -34.9900   33.7940   -8.8840 N.pl3 123  ARG123     -0.0865
     79  CZ       -35.5100   34.9810   -9.2200 C.cat 123  ARG123      0.5346
     80  NH1      -34.7430   36.0840   -9.3250 N.pl3 123  ARG123      0.1354
     81  NH2      -36.8200   35.0730   -9.4580 N.pl3 123  ARG123      0.1354
     82  N        -28.5170   28.4160   -4.9900 N.3   126  ILE126     -0.1231
     83  CA       -29.5700   27.4970   -4.5450 C.3   126  ILE126      0.1692
     84  C        -29.6450   26.2860   -5.4610 C.2   126  ILE126      0.2591
     85  O        -29.5650   25.1590   -5.0010 O.2   126  ILE126     -0.2718
     86  CB       -30.9430   28.1920   -4.4900 C.3   126  ILE126      0.0266
     87  CG1      -30.9750   29.1830   -3.3280 C.3   126  ILE126      0.0019
     88  CG2      -32.0720   27.1700   -4.3120 C.3   126  ILE126      0.0020
     89  CD1      -32.1300   30.1330   -3.3710 C.3   126  ILE126      0.0001
     90  N        -29.7930   26.5210   -6.7540 N.am  127  LEU127     -0.1980
     91  CA       -29.8260   25.4110   -7.7250 C.3   127  LEU127      0.1596
     92  C        -28.6040   24.4970   -7.5430 C.2   127  LEU127      0.2287
     93  O        -28.7440   23.2790   -7.5430 O.2   127  LEU127     -0.2864
     94  CB       -29.9120   25.9300   -9.1580 C.3   127  LEU127      0.0297
     95  CG       -29.8370   24.9030  -10.2970 C.3   127  LEU127      0.0022
     96  CD1      -30.8450   23.7690  -10.0950 C.3   127  LEU127      0.0001
     97  CD2      -30.0380   25.5850  -11.6660 C.3   127  LEU127      0.0001
     98  N        -28.9690   22.2270   -4.4720 N.3   130  TRP130     -0.1241
     99  CA       -29.8170   21.0460   -4.7770 C.3   130  TRP130      0.1605
    100  C        -29.1310   20.0240   -5.6830 C.2   130  TRP130      0.2264
    101  O        -29.3130   18.8240   -5.4820 O.2   130  TRP130     -0.2867
    102  CB       -31.1880   21.4690   -5.3100 C.3   130  TRP130      0.0550
    103  CG       -31.9610   21.9500   -4.1830 C.ar  130  TRP130      0.0003
    104  CD1      -32.0150   23.2170   -3.7190 C.ar  130  TRP130      0.0946
    105  CD2      -32.8030   21.1730   -3.3330 C.ar  130  TRP130      0.0152
    106  NE1      -32.8420   23.2900   -2.6320 N.ar  130  TRP130     -0.2442
    107  CE2      -33.3420   22.0500   -2.3710 C.ar  130  TRP130      0.0810
    108  CE3      -33.1570   19.8220   -3.2920 C.ar  130  TRP130      0.0012
    109  CZ2      -34.2200   21.6250   -1.3740 C.ar  130  TRP130      0.0191
    110  CZ3      -34.0260   19.3960   -2.3070 C.ar  130  TRP130      0.0001
    111  CH2      -34.5490   20.2990   -1.3580 C.ar  130  TRP130      0.0015
    112  N        -28.5120   11.0270   -3.9670 N.3   138  PHE138     -0.1241
    113  CA       -29.0780   10.0780   -4.9510 C.3   138  PHE138      0.1605
    114  C        -28.0420    9.1500   -5.5730 C.2   138  PHE138      0.2264
    115  O        -28.3130    7.9670   -5.7040 O.2   138  PHE138     -0.2867
    116  CB       -29.8840   10.7890   -6.0730 C.3   138  PHE138      0.0534
    117  CG       -31.3500   10.9540   -5.7530 C.ar  138  PHE138     -0.0203
    118  CD1      -32.3070   10.1480   -6.3620 C.ar  138  PHE138     -0.0042
    119  CD2      -31.7730   11.9100   -4.8470 C.ar  138  PHE138     -0.0042
    120  CE1      -33.6590   10.3020   -6.0660 C.ar  138  PHE138     -0.0003
    121  CE2      -33.1240   12.0650   -4.5510 C.ar  138  PHE138     -0.0003
    122  CZ       -34.0620   11.2650   -5.1550 C.ar  138  PHE138     -0.0000
@<TRIPOS>BOND
     1    97    95    1
     2    95    96    1
     3    95    94    1
     4    81    79    1
     5    80    79    1
     6    79    78    2
     7    94    91    1
     8    78    77    1
     9    75    76    1
    10    75    72    1
    11    77    76    1
    12    73    74    2
    13    73    72    1
    14    91    92    1
    15    91    90    1
    16    52    54   ar
    17    52    50   ar
    18    92    93    2
    19    72    71    1
    20    54    53   ar
    21    50    49   ar
    22    90    84   am
    23   118   120   ar
    24   118   117   ar
    25   116   117    1
    26   116   113    1
    27   120   122   ar
    28    12    11    1
    29   117   119   ar
    30    53    51   ar
    31   115   114    2
    32   100   101    2
    33   100    99    1
    34   114   113    1
    35    49    51   ar
    36    49    48    1
    37    84    85    2
    38    84    83    1
    39    10    11   ar
    40    10     8   ar
    41   102    99    1
    42   102   103    1
    43   122   121   ar
    44    82    83    1
    45   113   112    1
    46    11     9   ar
    47   119   121   ar
    48    99    98    1
    49    48    45    1
    50     8     6   ar
    51    83    86    1
    52    86    88    1
    53    86    87    1
    54   103   104   ar
    55   103   105   ar
    56    45    44    1
    57    45    46    1
    58   104   106   ar
    59     9     7   ar
    60    70    68    1
    61    89    87    1
    62   105   108   ar
    63   105   107   ar
    64   108   110   ar
    65     6     7   ar
    66     6     5    1
    67    69    68    1
    68    62    60    1
    69   106   107   ar
    70    46    47    2
    71    60    59    1
    72   107   109   ar
    73     5     2    1
    74   110   111   ar
    75    68    67    1
    76    31    30    1
    77    19    17    1
    78    38    36    1
    79   109   111   ar
    80    67    64    1
    81    30    27    1
    82     2     3    1
    83     2     1    1
    84    25    24    1
    85    55    56    1
    86    59    56    1
    87    59    61    1
    88     4     3    2
    89    24    21    1
    90    56    57    1
    91    37    36    1
    92    17    18    1
    93    17    14    1
    94    43    40    1
    95    21    20    1
    96    21    22    1
    97    36    33    1
    98    20    15   am
    99    64    65    1
   100    64    63    1
   101    27    28    1
   102    27    26    1
   103    15    16    2
   104    15    14    1
   105    29    28    2
   106    40    39    1
   107    40    41    1
   108    23    22    2
   109    14    13    1
   110    57    58    2
   111    33    32    1
   112    33    34    1
   113    65    66    2
   114    42    41    2
   115    35    34    2
