@<TRIPOS>MOLECULE
tmp/2rh1A06.pdb
 98 90 0 0 0
SMALL
GASTEIGER

@<TRIPOS>ATOM
      1  N        -21.3900   54.1390   20.3300 N.3   204  ILE204     -0.1245
      2  CA       -22.2240   55.2030   20.9010 C.3   204  ILE204      0.1561
      3  C        -23.4040   55.5720   20.0130 C.2   204  ILE204      0.2260
      4  O        -24.4720   55.8860   20.5210 O.2   204  ILE204     -0.2867
      5  CB       -21.3620   56.4530   21.3100 C.3   204  ILE204      0.0252
      6  CG1      -22.1720   57.3900   22.2290 C.3   204  ILE204      0.0019
      7  CG2      -20.7880   57.1530   20.0750 C.3   204  ILE204      0.0019
      8  CD1      -21.3700   58.5600   22.7370 C.3   204  ILE204      0.0001
      9  N        -22.4640   62.6110   15.1880 N.3   269  ASN269     -0.1240
     10  CA       -21.0350   62.6580   15.5200 C.3   269  ASN269      0.1653
     11  C        -20.6110   64.0920   15.8880 C.2   269  ASN269      0.2266
     12  O        -19.7220   64.2720   16.7160 O.2   269  ASN269     -0.2867
     13  CB       -20.1340   62.1510   14.4000 C.3   269  ASN269      0.1155
     14  CG       -20.4770   60.7410   13.9360 C.2   269  ASN269      0.2627
     15  OD1      -20.9020   59.9030   14.7220 O.2   269  ASN269     -0.2716
     16  ND2      -20.2860   60.4790   12.6170 N.am  269  ASN269     -0.0877
     17  N        -22.0580   64.6490   19.4260 N.3   272  VAL272     -0.1231
     18  CA       -21.1500   63.9480   20.3410 C.3   272  VAL272      0.1692
     19  C        -19.9060   64.7800   20.5770 C.2   272  VAL272      0.2592
     20  O        -19.5090   64.9680   21.7140 O.2   272  VAL272     -0.2718
     21  CB       -20.7370   62.5630   19.8200 C.3   272  VAL272      0.0266
     22  CG1      -19.5610   62.0860   20.5480 C.3   272  VAL272      0.0020
     23  CG2      -21.8870   61.5700   19.9520 C.3   272  VAL272      0.0020
     24  N        -19.2940   65.2800   19.5000 N.am  273  ASP273     -0.1974
     25  CA       -18.1280   66.1540   19.6230 C.3   273  ASP273      0.1709
     26  C        -18.4100   67.3210   20.5550 C.2   273  ASP273      0.2293
     27  O        -17.6280   67.5850   21.4640 O.2   273  ASP273     -0.2864
     28  CB       -17.6880   66.7030   18.2690 C.3   273  ASP273      0.1436
     29  CG       -16.5020   67.6450   18.3870 C.2   273  ASP273      0.3671
     30  OD1      -15.3550   67.1560   18.5210 O.co2 273  ASP273     -0.2456
     31  OD2      -16.7300   68.8740   18.3410 O.co2 273  ASP273     -0.2456
     32  N        -18.8360   66.2070   24.4150 N.3   276  VAL276     -0.1231
     33  CA       -17.5110   65.9730   24.9950 C.3   276  VAL276      0.1692
     34  C        -16.7520   67.2620   25.3480 C.2   276  VAL276      0.2591
     35  O        -16.1630   67.3450   26.4290 O.2   276  VAL276     -0.2718
     36  CB       -16.6480   65.1020   24.0730 C.3   276  VAL276      0.0266
     37  CG1      -15.2080   65.0760   24.5390 C.3   276  VAL276      0.0020
     38  CG2      -17.2050   63.6960   24.0330 C.3   276  VAL276      0.0020
     39  N        -16.7680   68.2460   24.4550 N.am  277  ARG277     -0.1980
     40  CA       -16.1240   69.5460   24.7260 C.3   277  ARG277      0.1597
     41  C        -16.7660   70.2300   25.9110 C.2   277  ARG277      0.2287
     42  O        -16.0700   70.8380   26.7350 O.2   277  ARG277     -0.2864
     43  CB       -16.2040   70.4870   23.5330 C.3   277  ARG277      0.0334
     44  CG       -15.3560   70.0700   22.3670 C.3   277  ARG277      0.0492
     45  CD       -15.4650   71.0700   21.2050 C.3   277  ARG277      0.2205
     46  NE       -15.0650   70.4300   19.9510 N.pl3 277  ARG277     -0.0865
     47  CZ       -13.8020   70.1830   19.5690 C.cat 277  ARG277      0.5346
     48  NH1      -12.7460   70.5170   20.3340 N.pl3 277  ARG277      0.1354
     49  NH2      -13.5800   69.5880   18.3930 N.pl3 277  ARG277      0.1354
     50  N        -15.7750   68.4070   29.1770 N.3   280  LEU280     -0.1245
     51  CA       -14.4070   68.8190   29.5120 C.3   280  LEU280      0.1561
     52  C        -14.2780   70.2750   30.0010 C.2   280  LEU280      0.2260
     53  O        -13.2810   70.6130   30.6270 O.2   280  LEU280     -0.2867
     54  CB       -13.4620   68.5780   28.3170 C.3   280  LEU280      0.0270
     55  CG       -13.1920   67.1150   27.9090 C.3   280  LEU280      0.0019
     56  CD1      -12.3010   67.0740   26.6790 C.3   280  LEU280      0.0001
     57  CD2      -12.5430   66.3090   29.0310 C.3   280  LEU280      0.0001
     58  N        -15.3100   62.0470   33.6910 N.3   289  TYR289     -0.1241
     59  CA       -15.0870   61.6600   32.2900 C.3   289  TYR289      0.1605
     60  C        -13.6550   61.2410   32.0540 C.2   289  TYR289      0.2264
     61  O        -13.4140   60.1840   31.5020 O.2   289  TYR289     -0.2867
     62  CB       -15.4200   62.8400   31.3820 C.3   289  TYR289      0.0534
     63  CG       -15.3450   62.5360   29.9090 C.ar  289  TYR289     -0.0201
     64  CD1      -16.4470   61.9940   29.2250 C.ar  289  TYR289     -0.0009
     65  CD2      -14.1810   62.7870   29.1850 C.ar  289  TYR289     -0.0009
     66  CE1      -16.3680   61.7120   27.8380 C.ar  289  TYR289      0.0417
     67  CE2      -14.1020   62.5110   27.8230 C.ar  289  TYR289      0.0417
     68  CZ       -15.1990   61.9760   27.1620 C.ar  289  TYR289      0.1957
     69  OH       -15.0990   61.7050   25.8040 O.3   289  TYR289     -0.2866
     70  N        -13.5610   54.1560   27.6770 N.3   294  ALA294     -0.1245
     71  CA       -14.3320   54.5300   26.4550 C.3   294  ALA294      0.1562
     72  C        -15.8170   54.1850   26.4820 C.2   294  ALA294      0.2260
     73  O        -16.6420   55.0160   26.1430 O.2   294  ALA294     -0.2867
     74  CB       -13.6820   53.8840   25.2130 C.3   294  ALA294      0.0290
     75  N        -17.5500   56.3040   29.1760 N.3   297  ARG297     -0.1231
     76  CA       -17.6460   57.6540   28.6160 C.3   297  ARG297      0.1694
     77  C        -18.8950   57.7810   27.6830 C.2   297  ARG297      0.2591
     78  O        -19.6030   58.7900   27.7410 O.2   297  ARG297     -0.2718
     79  CB       -16.3820   58.0320   27.8490 C.3   297  ARG297      0.0321
     80  CG       -15.2120   58.3810   28.7290 C.3   297  ARG297      0.0489
     81  CD       -13.9870   58.6990   27.8880 C.3   297  ARG297      0.2205
     82  NE       -12.8210   58.8770   28.7240 N.pl3 297  ARG297     -0.0865
     83  CZ       -11.6170   59.2760   28.3340 C.cat 297  ARG297      0.5346
     84  NH1      -11.3580   59.5680   27.0620 N.pl3 297  ARG297      0.1354
     85  NH2      -10.6420   59.3880   29.2440 N.pl3 297  ARG297      0.1354
     86  N        -19.1540   56.7670   26.8420 N.am  298  ALA298     -0.1980
     87  CA       -20.3810   56.7620   25.9930 C.3   298  ALA298      0.1597
     88  C        -21.6060   56.7870   26.8990 C.2   298  ALA298      0.2287
     89  O        -22.5960   57.4440   26.5940 O.2   298  ALA298     -0.2864
     90  CB       -20.4280   55.5560   25.0840 C.3   298  ALA298      0.0319
     91  N        -21.9410   60.4540   28.1150 N.3   301  ILE301     -0.1245
     92  CA       -22.4300   61.2520   26.9860 C.3   301  ILE301      0.1561
     93  C        -23.9080   60.9980   26.7580 C.2   301  ILE301      0.2260
     94  O        -24.6740   61.9410   26.5520 O.2   301  ILE301     -0.2867
     95  CB       -21.6720   60.9640   25.6770 C.3   301  ILE301      0.0252
     96  CG1      -20.2080   61.4110   25.7890 C.3   301  ILE301      0.0019
     97  CG2      -22.3680   61.6840   24.5230 C.3   301  ILE301      0.0019
     98  CD1      -19.2730   60.6430   24.9100 C.3   301  ILE301      0.0001
@<TRIPOS>BOND
     1    16    14   am
     2    14    13    1
     3    14    15    2
     4    13    10    1
     5     9    10    1
     6    10    11    1
     7    11    12    2
     8    28    29    1
     9    28    25    1
    10    31    29   ar
    11    29    30   ar
    12    49    47    1
    13    17    18    1
    14    24    25    1
    15    24    19   am
    16    47    46    2
    17    47    48    1
    18    25    26    1
    19    21    23    1
    20    21    18    1
    21    21    22    1
    22    46    45    1
    23     3     4    2
    24     3     2    1
    25     7     5    1
    26     1     2    1
    27    18    19    1
    28    26    27    2
    29    19    20    2
    30     2     5    1
    31    45    44    1
    32     5     6    1
    33     6     8    1
    34    44    43    1
    35    43    40    1
    36    38    36    1
    37    36    37    1
    38    36    33    1
    39    32    33    1
    40    39    40    1
    41    39    34   am
    42    97    95    1
    43    40    41    1
    44    98    96    1
    45    33    34    1
    46    90    87    1
    47    74    71    1
    48    34    35    2
    49    95    96    1
    50    95    92    1
    51    69    68    1
    52    41    42    2
    53    87    86    1
    54    87    88    1
    55    73    72    2
    56    71    72    1
    57    71    70    1
    58    94    93    2
    59    89    88    2
    60    56    55    1
    61    93    92    1
    62    86    77   am
    63    92    91    1
    64    84    83    1
    65    68    67   ar
    66    68    66   ar
    67    77    78    2
    68    77    76    1
    69    67    65   ar
    70    66    64   ar
    71    79    76    1
    72    79    80    1
    73    81    82    1
    74    81    80    1
    75    55    54    1
    76    55    57    1
    77    54    51    1
    78    83    82    2
    79    83    85    1
    80    76    75    1
    81    50    51    1
    82    65    63   ar
    83    64    63   ar
    84    51    52    1
    85    63    62    1
    86    52    53    2
    87    62    59    1
    88    61    60    2
    89    60    59    1
    90    59    58    1
