@<TRIPOS>MOLECULE
tmp/2rh6B01.pdb
 107 105 0 0 0
SMALL
GASTEIGER

@<TRIPOS>ATOM
      1  N         30.8860   36.2460   67.1500 N.3    69  SER69      -0.1217
      2  CA        29.9680   35.8000   68.1940 C.3    69  SER69       0.1889
      3  C         29.1570   34.6310   67.6600 C.2    69  SER69       0.2288
      4  O         28.5830   34.7200   66.5830 O.2    69  SER69      -0.2866
      5  CB        29.0370   36.9350   68.6060 C.3    69  SER69       0.2089
      6  OG        29.7600   37.9700   69.2370 O.3    69  SER69      -0.2183
      7  N         26.7970   30.7260   68.7540 N.3    71  ARG71      -0.1245
      8  CA        26.2490   29.7660   69.7010 C.3    71  ARG71       0.1563
      9  C         26.3150   28.3690   69.1150 C.2    71  ARG71       0.2260
     10  O         26.2370   28.1670   67.9050 O.2    71  ARG71      -0.2867
     11  CB        24.8100   30.1010   70.0530 C.3    71  ARG71       0.0307
     12  CG        24.6200   31.5040   70.5800 C.3    71  ARG71       0.0489
     13  CD        23.2700   31.6620   71.2730 C.3    71  ARG71       0.2205
     14  NE        22.9930   33.0520   71.6450 N.pl3  71  ARG71      -0.0865
     15  CZ        21.7960   33.5170   72.0130 C.cat  71  ARG71       0.5346
     16  NH1       20.7360   32.7150   72.0590 N.pl3  71  ARG71       0.1354
     17  NH2       21.6540   34.8010   72.3300 N.pl3  71  ARG71       0.1354
     18  N         32.2390   34.4390   72.2310 N.3    79  TRP79      -0.1241
     19  CA        32.5170   35.8150   71.8090 C.3    79  TRP79       0.1605
     20  C         33.9430   36.1790   72.2160 C.2    79  TRP79       0.2264
     21  O         34.5780   35.4280   72.9490 O.2    79  TRP79      -0.2867
     22  CB        31.4920   36.8160   72.3540 C.3    79  TRP79       0.0550
     23  CG        31.3340   36.8800   73.8430 C.ar   79  TRP79       0.0003
     24  CD1       32.0350   37.6590   74.7180 C.ar   79  TRP79       0.0946
     25  CD2       30.3670   36.1740   74.6180 C.ar   79  TRP79       0.0152
     26  NE1       31.5770   37.4560   76.0050 N.ar   79  TRP79      -0.2442
     27  CE2       30.5520   36.5500   75.9660 C.ar   79  TRP79       0.0810
     28  CE3       29.3640   35.2520   74.3040 C.ar   79  TRP79       0.0012
     29  CZ2       29.7740   36.0260   77.0000 C.ar   79  TRP79       0.0191
     30  CZ3       28.5970   34.7310   75.3260 C.ar   79  TRP79       0.0001
     31  CH2       28.7960   35.1280   76.6570 C.ar   79  TRP79       0.0015
     32  N         35.7410   38.1230   74.1370 N.3    81  SER81      -0.1217
     33  CA        36.2150   38.2600   75.5170 C.3    81  SER81       0.1889
     34  C         35.8970   37.0480   76.3910 C.2    81  SER81       0.2288
     35  O         36.2820   37.0240   77.5540 O.2    81  SER81      -0.2866
     36  CB        35.6460   39.5330   76.1610 C.3    81  SER81       0.2089
     37  OG        34.2300   39.5130   76.2440 O.3    81  SER81      -0.2183
     38  N         15.0460   35.3140   67.3230 N.3   238  THR238     -0.1203
     39  CA        16.1450   35.7890   68.1720 C.3   238  THR238      0.1994
     40  C         17.3170   36.2550   67.3170 C.2   238  THR238      0.2618
     41  O         17.7990   35.5180   66.4660 O.2   238  THR238     -0.2717
     42  CB        16.6550   34.6560   69.0820 C.3   238  THR238      0.1784
     43  OG1       15.5480   34.0680   69.7790 O.3   238  THR238     -0.2211
     44  CG2       17.6910   35.1560   70.0880 C.3   238  THR238      0.0376
     45  N         17.7340   37.5000   67.5040 N.am  239  ALA239     -0.1965
     46  CA        18.9830   37.9710   66.9120 C.3   239  ALA239      0.1728
     47  C         20.1720   37.3680   67.6420 C.2   239  ALA239      0.2616
     48  O         20.3800   37.6160   68.8340 O.2   239  ALA239     -0.2715
     49  CB        19.0560   39.5100   66.9390 C.3   239  ALA239      0.0334
     50  N         20.9600   36.5710   66.9200 N.am  240  ILE240     -0.1963
     51  CA        22.1080   35.9040   67.5090 C.3   240  ILE240      0.1727
     52  C         23.3230   36.8150   67.5070 C.2   240  ILE240      0.2617
     53  O         24.1540   36.7830   68.4250 O.2   240  ILE240     -0.2715
     54  CB        22.4250   34.5910   66.7460 C.3   240  ILE240      0.0290
     55  CG1       21.1820   33.6850   66.7060 C.3   240  ILE240      0.0022
     56  CG2       23.6160   33.8790   67.3610 C.3   240  ILE240      0.0023
     57  CD1       20.6940   33.2370   68.0700 C.3   240  ILE240      0.0001
     58  N         23.4310   37.6270   66.4480 N.am  241  THR241     -0.1937
     59  CA        24.5020   38.5930   66.3000 C.3   241  THR241      0.2028
     60  C         23.9320   39.9190   65.8470 C.2   241  THR241      0.2642
     61  O         22.8420   39.9580   65.2790 O.2   241  THR241     -0.2714
     62  CB        25.5480   38.1310   65.2790 C.3   241  THR241      0.1808
     63  OG1       24.9460   37.9240   63.9960 O.3   241  THR241     -0.2208
     64  CG2       26.1930   36.8330   65.7420 C.3   241  THR241      0.0379
     65  N         24.6490   40.9890   66.1510 N.am  242  ASP242     -0.1971
     66  CA        24.3480   42.3010   65.6030 C.3   242  ASP242      0.1709
     67  C         25.5520   42.8250   64.8250 C.2   242  ASP242      0.2293
     68  O         26.5270   42.1040   64.6050 O.2   242  ASP242     -0.2864
     69  CB        23.8760   43.2570   66.7120 C.3   242  ASP242      0.1436
     70  CG        25.0050   43.8210   67.5380 C.2   242  ASP242      0.3671
     71  OD1       26.1110   43.2410   67.5350 O.co2 242  ASP242     -0.2456
     72  OD2       24.7720   44.8770   68.2020 O.co2 242  ASP242     -0.2456
     73  N         21.9390   45.6240   68.6880 N.3   304  PHE304     -0.1228
     74  CA        21.0080   45.1600   69.7150 C.3   304  PHE304      0.1721
     75  C         20.3760   46.3980   70.3450 C.2   304  PHE304      0.2437
     76  O         21.0180   47.4350   70.4310 O.2   304  PHE304     -0.2733
     77  CB        21.7280   44.3310   70.7810 C.3   304  PHE304      0.0547
     78  CG        22.1980   42.9720   70.3010 C.ar  304  PHE304     -0.0202
     79  CD1       23.5580   42.6690   70.2400 C.ar  304  PHE304     -0.0042
     80  CD2       21.2920   42.0220   69.9050 C.ar  304  PHE304     -0.0042
     81  CE1       23.9900   41.4200   69.8130 C.ar  304  PHE304     -0.0003
     82  CE2       21.7160   40.7740   69.4620 C.ar  304  PHE304     -0.0003
     83  CZ        23.0780   40.4860   69.4270 C.ar  304  PHE304     -0.0000
     84  N         19.1120   46.2970   70.7700 N.am  305  PRO305     -0.2718
     85  CA        18.4230   47.4770   71.2540 C.3   305  PRO305      0.1535
     86  C         19.1290   48.1820   72.4070 C.2   305  PRO305      0.2599
     87  O         19.1280   49.4150   72.4520 O.2   305  PRO305     -0.2715
     88  CB        17.0530   46.9450   71.6830 C.3   305  PRO305      0.0310
     89  CG        16.9180   45.5980   71.0410 C.3   305  PRO305      0.0237
     90  CD        18.2590   45.0990   70.7260 C.3   305  PRO305      0.0939
     91  N         19.7350   47.4360   73.3280 N.am  306  ASP306     -0.1958
     92  CA        20.4000   48.0970   74.4630 C.3   306  ASP306      0.1840
     93  C         21.6190   48.9110   73.9980 C.2   306  ASP306      0.2621
     94  O         21.8940   49.9940   74.5170 O.2   306  ASP306     -0.2715
     95  CB        20.7410   47.1210   75.6230 C.3   306  ASP306      0.1450
     96  CG        21.6920   45.9830   75.2280 C.2   306  ASP306      0.3671
     97  OD1       21.9450   45.7420   74.0220 O.co2 306  ASP306     -0.2456
     98  OD2       22.1590   45.2870   76.1670 O.co2 306  ASP306     -0.2456
     99  N         22.3170   48.3940   73.0000 N.am  307  LYS307     -0.1977
    100  CA        23.4770   49.0700   72.4200 C.3   307  LYS307      0.1596
    101  C         23.0540   50.3070   71.6340 C.2   307  LYS307      0.2287
    102  O         23.6620   51.3680   71.7660 O.2   307  LYS307     -0.2864
    103  CB        24.2450   48.1120   71.5100 C.3   307  LYS307      0.0298
    104  CG        25.6140   48.6270   71.1050 C.3   307  LYS307      0.0038
    105  CD        26.2690   47.6910   70.1040 C.3   307  LYS307      0.0206
    106  CE        26.5290   46.2950   70.6630 C.3   307  LYS307      0.1093
    107  NZ        27.0520   45.4000   69.5750 N.3   307  LYS307     -0.1314
@<TRIPOS>BOND
     1    63    62    1
     2    68    67    2
     3    67    66    1
     4    62    64    1
     5    62    59    1
     6    61    60    2
     7    66    65    1
     8    66    69    1
     9    60    65   am
    10    60    59    1
    11    59    58    1
    12    58    52   am
    13    41    40    2
    14     4     3    2
    15    55    54    1
    16    55    57    1
    17    69    70    1
    18    54    56    1
    19    54    51    1
    20    46    49    1
    21    46    45    1
    22    46    47    1
    23    50    51    1
    24    50    47   am
    25     1     2    1
    26    40    45   am
    27    40    39    1
    28    38    39    1
    29    52    51    1
    30    52    53    2
    31    71    70   ar
    32    70    72   ar
    33    47    48    2
    34     3     2    1
    35    10     9    2
    36    39    42    1
    37     2     5    1
    38     5     6    1
    39    73    74    1
    40     7     8    1
    41    42    43    1
    42    42    44    1
    43     9     8    1
    44    83    82   ar
    45    83    81   ar
    46    82    80   ar
    47   107   106    1
    48     8    11    1
    49    74    75    1
    50    74    77    1
    51    81    79   ar
    52    80    78   ar
    53    11    12    1
    54   105   106    1
    55   105   104    1
    56    79    78   ar
    57    78    77    1
    58    75    76    2
    59    75    84   am
    60    12    13    1
    61    90    84    1
    62    90    89    1
    63    84    85    1
    64    89    88    1
    65   104   103    1
    66    85    88    1
    67    85    86    1
    68    13    14    1
    69   103   100    1
    70   101   102    2
    71   101   100    1
    72    14    15    2
    73    19    20    1
    74    19    18    1
    75    19    22    1
    76    15    16    1
    77    15    17    1
    78    20    21    2
    79    22    23    1
    80    86    87    2
    81    86    91   am
    82   100    99    1
    83    99    93   am
    84    91    92    1
    85    23    25   ar
    86    23    24   ar
    87    93    92    1
    88    93    94    2
    89    97    96   ar
    90    32    33    1
    91    28    25   ar
    92    28    30   ar
    93    92    95    1
    94    25    27   ar
    95    24    26   ar
    96    96    95    1
    97    96    98   ar
    98    30    31   ar
    99    33    36    1
   100    33    34    1
   101    27    26   ar
   102    27    29   ar
   103    36    37    1
   104    34    35    2
   105    31    29   ar
