@<TRIPOS>MOLECULE
tmp/2rh6A00.pdb
 172 166 0 0 0
SMALL
GASTEIGER

@<TRIPOS>ATOM
      1  N         20.3120   45.7880   25.6320 N.3    11  ASP11      -0.1239
      2  CA        21.7740   45.6440   25.6930 C.3    11  ASP11       0.1674
      3  C         22.3850   46.8330   26.4050 C.2    11  ASP11       0.2266
      4  O         22.0630   47.9780   26.0970 O.2    11  ASP11      -0.2867
      5  CB        22.3360   45.4910   24.2770 C.3    11  ASP11       0.1410
      6  CG        23.6720   44.7980   24.2580 C.2    11  ASP11       0.3668
      7  OD1       24.5480   45.2220   25.0030 O.co2  11  ASP11      -0.2456
      8  OD2       23.8280   43.8170   23.5180 O.co2  11  ASP11      -0.2456
      9  N         30.4930   40.5680   28.4910 N.3    46  LEU46      -0.1231
     10  CA        30.3310   40.8780   27.0750 C.3    46  LEU46       0.1693
     11  C         28.9690   40.3450   26.5840 C.2    46  LEU46       0.2593
     12  O         28.3190   39.5370   27.2470 O.2    46  LEU46      -0.2718
     13  CB        31.4610   40.2470   26.2510 C.3    46  LEU46       0.0284
     14  CG        32.8390   40.7820   26.5950 C.3    46  LEU46       0.0019
     15  CD1       33.9340   39.9880   25.8690 C.3    46  LEU46       0.0001
     16  CD2       32.9220   42.2670   26.2940 C.3    46  LEU46       0.0001
     17  N         28.5780   40.7820   25.4020 N.am   47  THR47      -0.1939
     18  CA        27.2270   40.5810   24.9020 C.3    47  THR47       0.2028
     19  C         26.8490   39.1320   24.5970 C.2    47  THR47       0.2642
     20  O         25.8120   38.6550   25.0790 O.2    47  THR47      -0.2714
     21  CB        26.9620   41.4590   23.7030 C.3    47  THR47       0.1808
     22  OG1       27.2080   42.7980   24.1050 O.3    47  THR47      -0.2208
     23  CG2       25.5130   41.3220   23.2740 C.3    47  THR47       0.0379
     24  N         27.6470   38.4450   23.7910 N.am   48  PHE48      -0.1973
     25  CA        27.2800   37.0910   23.3980 C.3    48  PHE48       0.1639
     26  C         27.3470   36.1290   24.5790 C.2    48  PHE48       0.2290
     27  O         26.3580   35.4040   24.8240 O.2    48  PHE48      -0.2864
     28  CB        28.0840   36.6180   22.1640 C.3    48  PHE48       0.0560
     29  CG        27.3210   36.7560   20.8630 C.ar   48  PHE48      -0.0200
     30  CD1       26.6230   37.9220   20.5710 C.ar   48  PHE48      -0.0042
     31  CD2       27.3100   35.7340   19.9270 C.ar   48  PHE48      -0.0042
     32  CE1       25.9020   38.0620   19.3940 C.ar   48  PHE48      -0.0003
     33  CE2       26.5860   35.8700   18.7290 C.ar   48  PHE48      -0.0003
     34  CZ        25.8900   37.0360   18.4670 C.ar   48  PHE48      -0.0000
     35  N         33.0710   37.2480   22.7370 N.3    68  ASN68      -0.1240
     36  CA        32.4360   37.5660   21.4500 C.3    68  ASN68       0.1653
     37  C         33.2340   37.0340   20.2610 C.2    68  ASN68       0.2266
     38  O         32.6530   36.7140   19.2240 O.2    68  ASN68      -0.2867
     39  CB        32.2820   39.0680   21.2600 C.3    68  ASN68       0.1155
     40  CG        31.2810   39.6910   22.1940 C.2    68  ASN68       0.2627
     41  OD1       30.2810   39.0770   22.5950 O.2    68  ASN68      -0.2716
     42  ND2       31.5240   40.9660   22.5270 N.am   68  ASN68      -0.0877
     43  N         31.0860   38.1710   15.8370 N.3    80  LEU80      -0.1245
     44  CA        29.6510   38.4870   15.7600 C.3    80  LEU80       0.1561
     45  C         29.1330   38.6120   14.3340 C.2    80  LEU80       0.2260
     46  O         28.0010   38.2170   14.0620 O.2    80  LEU80      -0.2867
     47  CB        29.3130   39.7510   16.5640 C.3    80  LEU80       0.0270
     48  CG        29.7220   39.7120   18.0470 C.3    80  LEU80       0.0019
     49  CD1       29.0930   40.8400   18.8310 C.3    80  LEU80       0.0001
     50  CD2       29.3880   38.3660   18.6950 C.3    80  LEU80       0.0001
     51  N         28.3470   31.9560   13.6810 N.3    86  VAL86      -0.1245
     52  CA        27.2610   32.2510   14.6150 C.3    86  VAL86       0.1561
     53  C         26.0730   31.3080   14.3930 C.2    86  VAL86       0.2260
     54  O         25.4110   30.8930   15.3500 O.2    86  VAL86      -0.2867
     55  CB        26.8350   33.7410   14.5090 C.3    86  VAL86       0.0252
     56  CG1       25.5870   34.0170   15.3330 C.3    86  VAL86       0.0019
     57  CG2       27.9870   34.6460   14.9280 C.3    86  VAL86       0.0019
     58  N         16.2670   38.1920   17.2070 N.3   112  SER112     -0.1202
     59  CA        17.7010   38.3960   17.3440 C.3   112  SER112      0.2020
     60  C         18.1840   38.2790   18.7880 C.2   112  SER112      0.2619
     61  O         18.5700   39.2730   19.4180 O.2   112  SER112     -0.2717
     62  CB        18.1110   39.7430   16.7500 C.3   112  SER112      0.2103
     63  OG        17.9450   39.7580   15.3360 O.3   112  SER112     -0.2182
     64  N         18.1040   37.0650   19.3120 N.am  113  TRP113     -0.1962
     65  CA        18.7970   36.6980   20.5370 C.3   113  TRP113      0.1756
     66  C         20.0320   35.9100   20.1280 C.2   113  TRP113      0.2461
     67  O         19.9410   34.9990   19.2920 O.2   113  TRP113     -0.2730
     68  CB        17.9240   35.8310   21.4360 C.3   113  TRP113      0.0590
     69  CG        18.4150   35.8330   22.8520 C.ar  113  TRP113      0.0006
     70  CD1       19.4420   35.0950   23.3710 C.ar  113  TRP113      0.0946
     71  CD2       17.9190   36.6430   23.9180 C.ar  113  TRP113      0.0152
     72  NE1       19.6080   35.3940   24.7100 N.ar  113  TRP113     -0.2442
     73  CE2       18.6760   36.3370   25.0650 C.ar  113  TRP113      0.0810
     74  CE3       16.9020   37.6020   24.0160 C.ar  113  TRP113      0.0012
     75  CZ2       18.4450   36.9500   26.2880 C.ar  113  TRP113      0.0191
     76  CZ3       16.6730   38.1970   25.2300 C.ar  113  TRP113      0.0001
     77  CH2       17.4480   37.8830   26.3470 C.ar  113  TRP113      0.0015
     78  N         21.2050   36.2650   20.6770 N.am  114  PRO114     -0.2727
     79  CA        22.4060   35.4880   20.4220 C.3   114  PRO114      0.1402
     80  C         22.1700   33.9690   20.5630 C.2   114  PRO114      0.2269
     81  O         21.7390   33.5080   21.6190 O.2   114  PRO114     -0.2865
     82  CB        23.3830   36.0240   21.4780 C.3   114  PRO114      0.0296
     83  CG        22.9890   37.4640   21.6160 C.3   114  PRO114      0.0237
     84  CD        21.4780   37.4480   21.5260 C.3   114  PRO114      0.0939
     85  N         20.0990   31.9980   15.6500 N.3   117  GLU117     -0.1245
     86  CA        20.3020   31.7360   14.2160 C.3   117  GLU117      0.1567
     87  C         20.9000   30.3630   13.9510 C.2   117  GLU117      0.2260
     88  O         21.1330   30.0000   12.7950 O.2   117  GLU117     -0.2867
     89  CB        21.1940   32.8020   13.5750 C.3   117  GLU117      0.0388
     90  CG        20.6890   34.2240   13.7230 C.3   117  GLU117      0.1160
     91  CD        21.6300   35.2570   13.1490 C.2   117  GLU117      0.3649
     92  OE1       22.4480   34.9170   12.2690 O.co2 117  GLU117     -0.2457
     93  OE2       21.5520   36.4270   13.5850 O.co2 117  GLU117     -0.2457
     94  N         20.4380   38.7550   12.2370 N.3   131  TYR131     -0.1241
     95  CA        20.5540   40.0590   12.8730 C.3   131  TYR131      0.1605
     96  C         21.0710   41.0760   11.8800 C.2   131  TYR131      0.2264
     97  O         22.1650   40.9100   11.3520 O.2   131  TYR131     -0.2867
     98  CB        21.5270   39.9960   14.0490 C.3   131  TYR131      0.0534
     99  CG        21.7410   41.3400   14.7090 C.ar  131  TYR131     -0.0201
    100  CD1       22.8270   42.1360   14.3840 C.ar  131  TYR131     -0.0009
    101  CD2       20.8290   41.8270   15.6360 C.ar  131  TYR131     -0.0009
    102  CE1       23.0090   43.3810   14.9840 C.ar  131  TYR131      0.0417
    103  CE2       21.0030   43.0570   16.2410 C.ar  131  TYR131      0.0417
    104  CZ        22.0880   43.8280   15.9170 C.ar  131  TYR131      0.1957
    105  OH        22.2400   45.0510   16.5340 O.3   131  TYR131     -0.2866
    106  N         21.8610   45.3160   11.3230 N.3   133  LYS133     -0.1245
    107  CA        22.0080   46.6410   11.9040 C.3   133  LYS133      0.1561
    108  C         20.8780   47.5650   11.4740 C.2   133  LYS133      0.2260
    109  O         20.3560   47.4620   10.3580 O.2   133  LYS133     -0.2867
    110  CB        23.3360   47.2660   11.4680 C.3   133  LYS133      0.0271
    111  CG        24.5620   46.5900   12.0390 C.3   133  LYS133      0.0035
    112  CD        24.7510   46.9190   13.5120 C.3   133  LYS133      0.0206
    113  CE        26.1190   46.4570   13.9980 C.3   133  LYS133      0.1093
    114  NZ        26.2020   44.9770   14.0510 N.3   133  LYS133     -0.1314
    115  N         15.0080   42.1550   21.4600 N.3   162  TYR162     -0.1241
    116  CA        16.3660   42.6140   21.7550 C.3   162  TYR162      0.1605
    117  C         16.5280   44.0220   21.1960 C.2   162  TYR162      0.2264
    118  O         16.1060   44.2950   20.0640 O.2   162  TYR162     -0.2867
    119  CB        17.4100   41.6970   21.1130 C.3   162  TYR162      0.0534
    120  CG        18.8080   42.2690   21.1400 C.ar  162  TYR162     -0.0201
    121  CD1       19.6030   42.1690   22.2730 C.ar  162  TYR162     -0.0009
    122  CD2       19.3220   42.9560   20.0430 C.ar  162  TYR162     -0.0009
    123  CE1       20.8830   42.6930   22.2940 C.ar  162  TYR162      0.0417
    124  CE2       20.5830   43.5030   20.0680 C.ar  162  TYR162      0.0417
    125  CZ        21.3560   43.3820   21.1960 C.ar  162  TYR162      0.1957
    126  OH        22.6350   43.9390   21.2340 O.3   162  TYR162     -0.2866
    127  N         19.6770   46.9950   20.7190 N.3   164  GLU164     -0.1245
    128  CA        21.1190   47.2940   20.7890 C.3   164  GLU164      0.1567
    129  C         21.4560   48.7620   21.1020 C.2   164  GLU164      0.2260
    130  O         22.6090   49.1030   21.3370 O.2   164  GLU164     -0.2867
    131  CB        21.7870   46.9390   19.4540 C.3   164  GLU164      0.0388
    132  CG        21.3530   47.7760   18.2500 C.3   164  GLU164      0.1160
    133  CD        20.0820   47.2860   17.5640 C.2   164  GLU164      0.3649
    134  OE1       19.3530   46.4530   18.1500 O.co2 164  GLU164     -0.2457
    135  OE2       19.8080   47.7530   16.4240 O.co2 164  GLU164     -0.2457
    136  N         23.4170   50.1550   24.2500 N.3   167  ASP167     -0.1225
    137  CA        24.8110   49.7240   24.2100 C.3   167  ASP167      0.1805
    138  C         25.6190   50.5270   23.2140 C.2   167  ASP167      0.2597
    139  O         26.7240   50.9640   23.5200 O.2   167  ASP167     -0.2718
    140  CB        24.9090   48.2320   23.8870 C.3   167  ASP167      0.1424
    141  CG        26.3360   47.6840   23.9980 C.2   167  ASP167      0.3668
    142  OD1       26.8330   47.6120   25.1210 O.co2 167  ASP167     -0.2456
    143  OD2       26.9240   47.3260   22.9650 O.co2 167  ASP167     -0.2456
    144  N         25.0710   50.7310   22.0210 N.am  168  GLU168     -0.1979
    145  CA        25.8050   51.4550   20.9810 C.3   168  GLU168      0.1602
    146  C         26.0420   52.9080   21.3880 C.2   168  GLU168      0.2287
    147  O         27.1430   53.4150   21.2130 O.2   168  GLU168     -0.2864
    148  CB        25.0820   51.3460   19.6370 C.3   168  GLU168      0.0415
    149  CG        25.0270   49.9110   19.1290 C.3   168  GLU168      0.1163
    150  CD        24.4830   49.7710   17.7160 C.2   168  GLU168      0.3649
    151  OE1       24.0320   50.7850   17.1360 O.co2 168  GLU168     -0.2457
    152  OE2       24.5310   48.6320   17.1890 O.co2 168  GLU168     -0.2457
    153  N         28.8600   52.9860   24.0600 N.3   171  HIS171     -0.1241
    154  CA        30.2030   52.9050   23.4880 C.3   171  HIS171      0.1621
    155  C         30.6290   54.2240   22.8820 C.2   171  HIS171      0.2264
    156  O         31.7680   54.6520   23.0660 O.2   171  HIS171     -0.2867
    157  CB        30.2920   51.8430   22.4130 C.3   171  HIS171      0.0745
    158  CG        30.2390   50.4510   22.9460 C.ar  171  HIS171      0.0817
    159  ND1       31.2770   49.8910   23.6610 N.ar  171  HIS171     -0.2268
    160  CD2       29.2620   49.5170   22.8930 C.ar  171  HIS171      0.1154
    161  CE1       30.9420   48.6560   24.0100 C.ar  171  HIS171      0.1986
    162  NE2       29.7190   48.4140   23.5650 N.ar  171  HIS171     -0.2212
    163  N         32.2270   48.0220   28.3900 N.3   320  HIS320     -0.1241
    164  CA        31.9340   47.0520   29.4340 C.3   320  HIS320      0.1621
    165  C         33.0180   46.0140   29.3050 C.2   320  HIS320      0.2264
    166  O         34.1190   46.3450   28.8770 O.2   320  HIS320     -0.2867
    167  CB        30.5000   46.5250   29.3090 C.3   320  HIS320      0.0745
    168  CG        30.1240   46.1180   27.9220 C.ar  320  HIS320      0.0817
    169  ND1       30.1440   44.8040   27.5090 N.ar  320  HIS320     -0.2268
    170  CD2       29.7580   46.8490   26.8380 C.ar  320  HIS320      0.1154
    171  CE1       29.8120   44.7410   26.2340 C.ar  320  HIS320      0.1986
    172  NE2       29.5800   45.9660   25.8010 N.ar  320  HIS320     -0.2212
@<TRIPOS>BOND
     1   109   108    2
     2   106   107    1
     3    97    96    2
     4   110   107    1
     5   110   111    1
     6   108   107    1
     7    96    95    1
     8   111   112    1
     9    94    95    1
    10    92    91   ar
    11    88    87    2
    12    95    98    1
    13    91    93   ar
    14    91    90    1
    15   112   113    1
    16    89    90    1
    17    89    86    1
    18    51    52    1
    19    87    86    1
    20   113   114    1
    21    98    99    1
    22    46    45    2
    23    86    85    1
    24    45    44    1
    25   100    99   ar
    26   100   102   ar
    27    53    52    1
    28    53    54    2
    29    55    52    1
    30    55    57    1
    31    55    56    1
    32    99   101   ar
    33   102   104   ar
    34    63    62    1
    35   101   103   ar
    36    44    43    1
    37    44    47    1
    38   104   103   ar
    39   104   105    1
    40   135   133   ar
    41    47    48    1
    42    62    59    1
    43   151   150   ar
    44   152   150   ar
    45    58    59    1
    46    59    60    1
    47   133   134   ar
    48   133   132    1
    49   150   149    1
    50    48    50    1
    51    48    49    1
    52   132   131    1
    53    34    33   ar
    54    34    32   ar
    55    33    31   ar
    56    60    64   am
    57    60    61    2
    58   149   148    1
    59    38    37    2
    60    67    66    2
    61    64    65    1
    62    32    30   ar
    63   131   128    1
    64   148   145    1
    65    31    29   ar
    66   122   124   ar
    67   122   120   ar
    68   118   117    2
    69   124   125   ar
    70    66    65    1
    71    66    78   am
    72    37    36    1
    73    79    80    1
    74    79    78    1
    75    79    82    1
    76    65    68    1
    77    80    81    2
    78    30    29   ar
    79    78    84    1
    80   127   128    1
    81   128   129    1
    82    29    28    1
    83   145   146    1
    84   145   144    1
    85   129   130    2
    86   119   120    1
    87   119   116    1
    88   120   121   ar
    89   117   116    1
    90   125   126    1
    91   125   123   ar
    92   147   146    2
    93    39    36    1
    94    39    40    1
    95    68    69    1
    96    36    35    1
    97   115   116    1
    98    82    83    1
    99    84    83    1
   100   144   138   am
   101    28    25    1
   102    40    42   am
   103    40    41    2
   104   121   123   ar
   105   157   158    1
   106   157   154    1
   107    69    70   ar
   108    69    71   ar
   109   155   156    2
   110   155   154    1
   111   160   158   ar
   112   160   162   ar
   113   158   159   ar
   114   143   141   ar
   115   138   139    2
   116   138   137    1
   117    23    21    1
   118    70    72   ar
   119    25    24    1
   120    25    26    1
   121   154   153    1
   122     8     6   ar
   123   162   161   ar
   124   159   161   ar
   125    21    22    1
   126    21    18    1
   127    24    19   am
   128   140   141    1
   129   140   137    1
   130    71    74   ar
   131    71    73   ar
   132   141   142   ar
   133    74    76   ar
   134   137   136    1
   135     6     5    1
   136     6     7   ar
   137     5     2    1
   138    26    27    2
   139    19    18    1
   140    19    20    2
   141    72    73   ar
   142    18    17    1
   143    73    75   ar
   144    76    77   ar
   145    17    11   am
   146     1     2    1
   147     2     3    1
   148   172   171   ar
   149   172   170   ar
   150    15    14    1
   151     4     3    2
   152   171   169   ar
   153    13    14    1
   154    13    10    1
   155    75    77   ar
   156    16    14    1
   157    11    10    1
   158    11    12    2
   159   170   168   ar
   160    10     9    1
   161   169   168   ar
   162   168   167    1
   163   163   164    1
   164   166   165    2
   165   165   164    1
   166   167   164    1
