@<TRIPOS>MOLECULE
tmp/2rhgB00.pdb
 128 120 0 0 0
SMALL
GASTEIGER

@<TRIPOS>ATOM
      1  N         86.3010   11.5940    4.5070 N.3    84  ALA84      -0.1231
      2  CA        85.6910   11.4220    5.8290 C.3    84  ALA84       0.1694
      3  C         84.7910   10.2070    5.8670 C.2    84  ALA84       0.2592
      4  O         84.3580    9.7170    4.8300 O.2    84  ALA84      -0.2718
      5  CB        84.8940   12.6670    6.2010 C.3    84  ALA84       0.0304
      6  N         84.5050    9.7350    7.0720 N.am   85  HIS85      -0.1962
      7  CA        83.6490    8.5740    7.2770 C.3    85  HIS85       0.1787
      8  C         82.2240    8.8220    6.7830 C.2    85  HIS85       0.2620
      9  O         81.5060    7.8780    6.4710 O.2    85  HIS85      -0.2715
     10  CB        83.6060    8.2370    8.7710 C.3    85  HIS85       0.0785
     11  CG        82.8390    9.2310    9.5900 C.ar   85  HIS85       0.0821
     12  ND1       83.2860   10.5170    9.8230 N.ar   85  HIS85      -0.2267
     13  CD2       81.6260    9.1410   10.1840 C.ar   85  HIS85       0.1154
     14  CE1       82.3780   11.1740   10.5240 C.ar   85  HIS85       0.1986
     15  NE2       81.3620   10.3640   10.7560 N.ar   85  HIS85      -0.2212
     16  N         81.8100   10.0890    6.7480 N.am   86  LYS86      -0.1977
     17  CA        80.4540   10.4640    6.3150 C.3    86  LYS86       0.1596
     18  C         79.9470    9.7400    5.0790 C.2    86  LYS86       0.2287
     19  O         78.7760    9.3840    5.0040 O.2    86  LYS86      -0.2864
     20  CB        80.3750   11.9760    6.0710 C.3    86  LYS86       0.0298
     21  CG        80.2560   12.8190    7.3430 C.3    86  LYS86       0.0038
     22  CD        80.2930   14.3100    7.0170 C.3    86  LYS86       0.0206
     23  CE        79.9730   15.1710    8.2240 C.3    86  LYS86       0.1093
     24  NZ        80.7910   14.8230    9.3800 N.3    86  LYS86      -0.1314
     25  N         80.7850   19.5500    4.9720 N.3   113  GLN113     -0.1245
     26  CA        81.2310   18.1620    4.8690 C.3   113  GLN113      0.1566
     27  C         80.0930   17.2280    4.4680 C.2   113  GLN113      0.2260
     28  O         80.1910   16.5020    3.4740 O.2   113  GLN113     -0.2867
     29  CB        81.8370   17.7070    6.1830 C.3   113  GLN113      0.0367
     30  CG        83.1300   18.4110    6.5480 C.3   113  GLN113      0.0905
     31  CD        83.4560   18.2680    8.0260 C.2   113  GLN113      0.2608
     32  OE1       83.7410   17.1810    8.5270 O.2   113  GLN113     -0.2717
     33  NE2       83.3900   19.3910    8.7340 N.am  113  GLN113     -0.0878
     34  N         72.6430   13.7410    8.7240 N.3   162  GLY162     -0.1210
     35  CA        74.0810   13.5570    8.7460 C.3   162  GLY162      0.1956
     36  C         74.7690   12.9730    9.9680 C.2   162  GLY162      0.2612
     37  O         75.9980   12.8620    9.9790 O.2   162  GLY162     -0.2717
     38  N         74.0220   12.6060   11.0040 N.am  163  THR163     -0.1952
     39  CA        74.6680   12.0190   12.1810 C.3   163  THR163      0.1897
     40  C         73.7750   10.9980   12.8830 C.2   163  THR163      0.2313
     41  O         72.6260   10.8200   12.4940 O.2   163  THR163     -0.2863
     42  CB        75.1450   13.1100   13.1880 C.3   163  THR163      0.1794
     43  OG1       76.0180   12.5150   14.1600 O.3   163  THR163     -0.2208
     44  CG2       73.9690   13.7610   13.9000 C.3   163  THR163      0.0378
     45  N         86.1730   10.9080   18.2190 N.3   203  CYS203     -0.1221
     46  CA        85.5760   12.1810   18.6100 C.3   203  CYS203      0.1808
     47  C         84.0580   12.0750   18.4990 C.2   203  CYS203      0.2601
     48  O         83.5320   11.2870   17.7110 O.2   203  CYS203     -0.2717
     49  CB        86.1110   13.3250   17.7310 C.3   203  CYS203      0.0970
     50  SG        85.6490   13.2210   15.9410 S.3   203  CYS203     -0.0800
     51  N         83.3550   12.8430   19.3180 N.am  204  VAL204     -0.1965
     52  CA        81.8970   12.8160   19.3180 C.3   204  VAL204      0.1727
     53  C         81.3010   14.1900   19.0260 C.2   204  VAL204      0.2617
     54  O         81.2830   15.0630   19.8900 O.2   204  VAL204     -0.2715
     55  CB        81.3390   12.3250   20.6860 C.3   204  VAL204      0.0290
     56  CG1       79.8060   12.4080   20.6830 C.3   204  VAL204      0.0023
     57  CG2       81.7700   10.8840   20.9590 C.3   204  VAL204      0.0023
     58  N         80.8200   14.3740   17.8030 N.am  205  GLY205     -0.1940
     59  CA        80.1950   15.6280   17.4380 C.3   205  GLY205      0.2014
     60  C         78.7110   15.3180   17.4670 C.2   205  GLY205      0.2639
     61  O         77.9630   15.8480   18.2780 O.2   205  GLY205     -0.2714
     62  N         78.2980   14.4370   16.5650 N.am  206  GLY206     -0.1939
     63  CA        76.9220   14.0020   16.5160 C.3   206  GLY206      0.2014
     64  C         76.9090   12.5860   17.0640 C.2   206  GLY206      0.2639
     65  O         75.9090   12.1330   17.6180 O.2   206  GLY206     -0.2714
     66  N         78.0260   11.8810   16.8820 N.am  207  GLY207     -0.1939
     67  CA        78.1560   10.5270   17.3820 C.3   207  GLY207      0.2014
     68  C         78.2280    9.4380   16.3280 C.2   207  GLY207      0.2640
     69  O         78.3860    8.2640   16.6810 O.2   207  GLY207     -0.2714
     70  N         78.1270    9.8040   15.0470 N.am  208  SER208     -0.1935
     71  CA        78.1520    8.8090   13.9680 C.3   208  SER208      0.2055
     72  C         79.4820    8.0610   13.7530 C.2   208  SER208      0.2643
     73  O         79.4890    6.8270   13.6880 O.2   208  SER208     -0.2714
     74  CB        77.6800    9.4310   12.6350 C.3   208  SER208      0.2130
     75  OG        78.6610   10.2710   12.0640 O.3   208  SER208     -0.2179
     76  N         80.6060    8.7680   13.6400 N.am  209  ASN209     -0.1971
     77  CA        81.8660    8.0540   13.4290 C.3   209  ASN209      0.1688
     78  C         82.2180    7.2750   14.6970 C.2   209  ASN209      0.2292
     79  O         82.7680    6.1780   14.6300 O.2   209  ASN209     -0.2864
     80  CB        83.0200    9.0100   13.0360 C.3   209  ASN209      0.1181
     81  CG        83.7050    9.6630   14.2410 C.2   209  ASN209      0.2629
     82  OD1       83.2860   10.7160   14.7200 O.2   209  ASN209     -0.2716
     83  ND2       84.7600    9.0280   14.7310 N.am  209  ASN209     -0.0877
     84  N         83.0890   20.9350   12.5620 N.3   276  GLY276     -0.1210
     85  CA        82.4730   19.6280   12.4410 C.3   276  GLY276      0.1956
     86  C         81.9370   19.0520   13.7390 C.2   276  GLY276      0.2611
     87  O         81.1800   18.0840   13.7220 O.2   276  GLY276     -0.2717
     88  N         82.3270   19.6280   14.8690 N.am  277  LEU277     -0.1979
     89  CA        81.8470   19.1360   16.1540 C.3   277  LEU277      0.1596
     90  C         80.9520   20.1870   16.8280 C.2   277  LEU277      0.2287
     91  O         80.8890   20.2630   18.0520 O.2   277  LEU277     -0.2864
     92  CB        83.0380   18.7890   17.0610 C.3   277  LEU277      0.0297
     93  CG        84.0730   17.7770   16.5520 C.3   277  LEU277      0.0022
     94  CD1       85.2340   17.6830   17.5360 C.3   277  LEU277      0.0001
     95  CD2       83.4350   16.4060   16.3740 C.3   277  LEU277      0.0001
     96  N         91.9570   15.5540   10.4330 N.3   321  ALA321     -0.1245
     97  CA        90.9610   16.6120   10.5470 C.3   321  ALA321      0.1562
     98  C         90.9840   17.0890   12.0030 C.2   321  ALA321      0.2260
     99  O         91.2100   16.2940   12.9220 O.2   321  ALA321     -0.2867
    100  CB        89.5790   16.0730   10.2030 C.3   321  ALA321      0.0290
    101  N         88.7000   17.6050   13.8290 N.3   323  GLU323     -0.1245
    102  CA        87.7100   16.8170   14.5590 C.3   323  GLU323      0.1567
    103  C         88.3860   15.5490   15.0860 C.2   323  GLU323      0.2260
    104  O         88.3360   15.2440   16.2840 O.2   323  GLU323     -0.2867
    105  CB        86.5180   16.4420   13.6530 C.3   323  GLU323      0.0388
    106  CG        85.6660   17.6310   13.1800 C.3   323  GLU323      0.1160
    107  CD        86.0990   18.1780   11.8250 C.2   323  GLU323      0.3649
    108  OE1       87.2710   17.9880   11.4500 O.co2 323  GLU323     -0.2457
    109  OE2       85.2640   18.8130   11.1430 O.co2 323  GLU323     -0.2457
    110  N         88.6280    9.8400   11.7920 N.3   350  SER350     -0.1202
    111  CA        87.4210   10.1300   11.0100 C.3   350  SER350      0.2023
    112  C         87.5890   10.9190    9.7010 C.2   350  SER350      0.2658
    113  O         86.7260   10.8400    8.8350 O.2   350  SER350     -0.2713
    114  CB        86.3990   10.8400   11.9010 C.3   350  SER350      0.2104
    115  OG        86.8850   12.0890   12.3670 O.3   350  SER350     -0.2182
    116  N         88.6630   11.6940    9.5530 N.am  351  GLY351     -0.1731
    117  CA        88.8420   12.4410    8.3090 C.2   351  GLY351      0.1340
    118  C         90.1940   13.1110    8.1190 C.2   351  GLY351      0.2521
    119  O         90.9960   13.1780    9.0530 O.2   351  GLY351     -0.2816
    120  N         91.3320   20.3440    4.8160 N.3   355  LYS355     -0.1245
    121  CA        90.3510   21.4250    4.9120 C.3   355  LYS355      0.1561
    122  C         90.6480   22.3670    6.0730 C.2   355  LYS355      0.2260
    123  O         90.1320   23.4810    6.1180 O.2   355  LYS355     -0.2867
    124  CB        88.9460   20.8500    5.0940 C.3   355  LYS355      0.0271
    125  CG        88.7460   20.0630    6.3910 C.3   355  LYS355      0.0035
    126  CD        87.3230   19.5340    6.4940 C.3   355  LYS355      0.0206
    127  CE        87.1280   18.6600    7.7210 C.3   355  LYS355      0.1093
    128  NZ        87.3640   19.3830    9.0060 N.3   355  LYS355     -0.1314
@<TRIPOS>BOND
     1    28    27    2
     2    27    26    1
     3     1     2    1
     4   120   121    1
     5     4     3    2
     6    26    25    1
     7    26    29    1
     8   121   124    1
     9   121   122    1
    10    19    18    2
    11    18    17    1
    12   124   125    1
    13     2     3    1
    14     2     5    1
    15     3     6   am
    16    20    17    1
    17    20    21    1
    18   122   123    2
    19    29    30    1
    20    17    16    1
    21   125   126    1
    22     9     8    2
    23   126   127    1
    24    30    31    1
    25    16     8   am
    26     8     7    1
    27    22    21    1
    28    22    23    1
    29     6     7    1
    30     7    10    1
    31   127   128    1
    32    31    32    2
    33    31    33   am
    34   118   117    1
    35   118   119    2
    36    23    24    1
    37   117   116    2
    38    34    35    1
    39    35    36    1
    40    10    11    1
    41   113   112    2
    42   116   112    1
    43    11    12   ar
    44    11    13   ar
    45   112   111    1
    46    12    14   ar
    47    36    37    2
    48    36    38   am
    49    13    15   ar
    50   100    97    1
    51    96    97    1
    52    14    15   ar
    53    97    98    1
    54    38    39    1
    55   111   110    1
    56   111   114    1
    57   109   107   ar
    58   108   107   ar
    59   107   106    1
    60   114   115    1
    61    98    99    2
    62    75    74    1
    63    39    40    1
    64    39    42    1
    65    85    84    1
    66    85    86    1
    67    41    40    2
    68    74    71    1
    69    80    77    1
    70    80    81    1
    71   106   105    1
    72    42    44    1
    73    42    43    1
    74    77    76    1
    75    77    78    1
    76    76    72   am
    77   105   102    1
    78    73    72    2
    79    87    86    2
    80    86    88   am
    81    72    71    1
    82   101   102    1
    83    71    70    1
    84    81    82    2
    85    81    83   am
    86   102   103    1
    87    79    78    2
    88    88    89    1
    89    70    68   am
    90   103   104    2
    91    50    49    1
    92    89    90    1
    93    89    92    1
    94    68    69    2
    95    68    67    1
    96    95    93    1
    97    63    62    1
    98    63    64    1
    99    93    92    1
   100    93    94    1
   101    62    60   am
   102    90    91    2
   103    66    64   am
   104    66    67    1
   105    64    65    2
   106    59    60    1
   107    59    58    1
   108    60    61    2
   109    48    47    2
   110    49    46    1
   111    58    53   am
   112    45    46    1
   113    47    46    1
   114    47    51   am
   115    53    52    1
   116    53    54    2
   117    52    51    1
   118    52    55    1
   119    56    55    1
   120    55    57    1
