@<TRIPOS>MOLECULE
tmp/2rhiA00.pdb
 105 101 0 0 0
SMALL
GASTEIGER

@<TRIPOS>ATOM
      1  N         -9.7320    7.4880   -2.3480 N.3   151  ASP151     -0.1239
      2  CA       -10.0200    6.8370   -1.0790 C.3   151  ASP151      0.1674
      3  C         -8.6310    6.6990   -0.4710 C.2   151  ASP151      0.2266
      4  O         -7.8380    5.8680   -0.9060 O.2   151  ASP151     -0.2867
      5  CB       -10.6360    5.4620   -1.3080 C.3   151  ASP151      0.1410
      6  CG       -10.9100    4.7260   -0.0120 C.2   151  ASP151      0.3668
      7  OD1      -10.4290    5.1870    1.0440 O.co2 151  ASP151     -0.2456
      8  OD2      -11.5940    3.6840   -0.0510 O.co2 151  ASP151     -0.2456
      9  N         -7.5970    3.3470    0.3570 N.3   154  ASN154     -0.1240
     10  CA        -7.4770    2.4950   -0.8270 C.3   154  ASN154      0.1653
     11  C         -7.1930    3.4610   -1.9780 C.2   154  ASN154      0.2266
     12  O         -8.0000    3.6110   -2.9000 O.2   154  ASN154     -0.2867
     13  CB        -8.7910    1.7540   -1.0610 C.3   154  ASN154      0.1155
     14  CG        -9.1700    0.8730    0.1120 C.2   154  ASN154      0.2627
     15  OD1       -8.5680   -0.1820    0.3280 O.2   154  ASN154     -0.2716
     16  ND2      -10.1550    1.3110    0.8920 N.am  154  ASN154     -0.0877
     17  N         -8.0910    3.8600   -5.8060 N.3   157  LEU157     -0.1245
     18  CA        -9.4720    4.1560   -6.1630 C.3   157  LEU157      0.1561
     19  C         -9.8080    5.6420   -6.1170 C.2   157  LEU157      0.2260
     20  O         -9.5950    6.3040   -5.1030 O.2   157  LEU157     -0.2867
     21  CB       -10.4320    3.4240   -5.2200 C.3   157  LEU157      0.0270
     22  CG       -10.3110    1.9070   -5.0770 C.3   157  LEU157      0.0019
     23  CD1      -11.3330    1.4160   -4.0550 C.3   157  LEU157      0.0001
     24  CD2      -10.5330    1.2420   -6.4270 C.3   157  LEU157      0.0001
     25  N        -13.0180    7.9730   -6.5060 N.3   159  CYS159     -0.1235
     26  CA       -14.4490    7.7170   -6.4350 C.3   159  CYS159      0.1677
     27  C        -15.4280    8.8760   -6.4360 C.2   159  CYS159      0.2270
     28  O        -15.0650   10.0240   -6.2060 O.2   159  CYS159     -0.2867
     29  CB       -14.7190    6.8970   -5.1740 C.3   159  CYS159      0.0956
     30  SG       -13.3260    5.8610   -4.6530 S.3   159  CYS159     -0.0801
     31  N        -17.8070    9.3170    0.6870 N.3   175  PHE175     -0.1241
     32  CA       -17.9280    8.4750   -0.4940 C.3   175  PHE175      0.1605
     33  C        -19.3600    7.9660   -0.5830 C.2   175  PHE175      0.2264
     34  O        -19.8330    7.2290    0.2760 O.2   175  PHE175     -0.2867
     35  CB       -16.8890    7.3600   -0.4040 C.3   175  PHE175      0.0534
     36  CG       -15.4810    7.8830   -0.4590 C.ar  175  PHE175     -0.0203
     37  CD1      -14.8810    8.1630   -1.6840 C.ar  175  PHE175     -0.0042
     38  CD2      -14.8030    8.2180    0.7100 C.ar  175  PHE175     -0.0042
     39  CE1      -13.6280    8.7750   -1.7480 C.ar  175  PHE175     -0.0003
     40  CE2      -13.5480    8.8310    0.6600 C.ar  175  PHE175     -0.0003
     41  CZ       -12.9600    9.1120   -0.5710 C.ar  175  PHE175     -0.0000
     42  N        -21.2270    4.6980    0.7020 N.3   178  TRP178     -0.1241
     43  CA       -20.2290    3.8590    1.3560 C.3   178  TRP178      0.1605
     44  C        -20.2710    4.2100    2.8390 C.2   178  TRP178      0.2264
     45  O        -20.8610    5.2200    3.2290 O.2   178  TRP178     -0.2867
     46  CB       -18.8180    4.1280    0.8130 C.3   178  TRP178      0.0550
     47  CG       -18.5800    3.6690   -0.5950 C.ar  178  TRP178      0.0003
     48  CD1      -18.6910    4.4170   -1.7330 C.ar  178  TRP178      0.0946
     49  CD2      -18.1810    2.3580   -1.0150 C.ar  178  TRP178      0.0152
     50  NE1      -18.3810    3.6550   -2.8350 N.ar  178  TRP178     -0.2442
     51  CE2      -18.0640    2.3870   -2.4230 C.ar  178  TRP178      0.0810
     52  CE3      -17.9070    1.1600   -0.3370 C.ar  178  TRP178      0.0012
     53  CZ2      -17.6860    1.2620   -3.1680 C.ar  178  TRP178      0.0191
     54  CZ3      -17.5310    0.0410   -1.0790 C.ar  178  TRP178      0.0001
     55  CH2      -17.4240    0.1030   -2.4790 C.ar  178  TRP178      0.0015
     56  N        -15.0290    5.9850    5.9620 N.3   182  TYR182     -0.1241
     57  CA       -14.0750    6.2040    4.8750 C.3   182  TYR182      0.1605
     58  C        -13.9480    7.7200    4.6620 C.2   182  TYR182      0.2264
     59  O        -13.1260    8.1720    3.8660 O.2   182  TYR182     -0.2867
     60  CB       -14.5480    5.5510    3.5720 C.3   182  TYR182      0.0534
     61  CG       -14.5170    4.0390    3.5780 C.ar  182  TYR182     -0.0201
     62  CD1      -13.3080    3.3410    3.5180 C.ar  182  TYR182     -0.0009
     63  CD2      -15.6980    3.3080    3.6610 C.ar  182  TYR182     -0.0009
     64  CE1      -13.2850    1.9430    3.5440 C.ar  182  TYR182      0.0417
     65  CE2      -15.6870    1.9230    3.6880 C.ar  182  TYR182      0.0417
     66  CZ       -14.4820    1.2440    3.6300 C.ar  182  TYR182      0.1957
     67  OH       -14.4950   -0.1350    3.6720 O.3   182  TYR182     -0.2866
     68  N        -14.7170    4.9710   -9.5570 N.3   207  THR207     -0.1204
     69  CA       -15.4820    4.0780   -8.6960 C.3   207  THR207      0.1979
     70  C        -16.8150    4.7350   -8.3480 C.2   207  THR207      0.2459
     71  O        -16.8590    5.7300   -7.6290 O.2   207  THR207     -0.2732
     72  CB       -14.7090    3.7600   -7.3980 C.3   207  THR207      0.1783
     73  OG1      -13.4960    3.0710   -7.7250 O.3   207  THR207     -0.2211
     74  CG2      -15.5450    2.8890   -6.4720 C.3   207  THR207      0.0376
     75  N        -17.9240    4.1860   -8.8670 N.am  208  PRO208     -0.2728
     76  CA       -19.2650    4.7230   -8.6120 C.3   208  PRO208      0.1401
     77  C        -19.7520    4.4650   -7.1880 C.2   208  PRO208      0.2269
     78  O        -19.0980    3.7600   -6.4200 O.2   208  PRO208     -0.2865
     79  CB       -20.1180    4.0090   -9.6550 C.3   208  PRO208      0.0296
     80  CG       -19.4600    2.6740   -9.7530 C.3   208  PRO208      0.0237
     81  CD       -17.9860    3.0190   -9.7670 C.3   208  PRO208      0.0939
     82  N        -21.4640    2.9360   -3.9610 N.3   210  GLN210     -0.1231
     83  CA       -21.5790    1.5200   -3.6520 C.3   210  GLN210      0.1698
     84  C        -22.9100    0.9590   -4.1320 C.2   210  GLN210      0.2592
     85  O        -23.9630    1.5610   -3.9220 O.2   210  GLN210     -0.2718
     86  CB       -21.4390    1.2710   -2.1480 C.3   210  GLN210      0.0381
     87  CG       -21.2460   -0.2050   -1.8240 C.3   210  GLN210      0.0905
     88  CD       -21.1430   -0.4960   -0.3410 C.2   210  GLN210      0.2608
     89  OE1      -20.7580   -1.5970    0.0530 O.2   210  GLN210     -0.2717
     90  NE2      -21.4940    0.4790    0.4880 N.am  210  GLN210     -0.0878
     91  N        -22.8420   -0.1970   -4.7840 N.am  211  ASP211     -0.1974
     92  CA       -24.0190   -0.8870   -5.2970 C.3   211  ASP211      0.1709
     93  C        -24.8460   -0.0880   -6.2980 C.2   211  ASP211      0.2293
     94  O        -26.0550   -0.2910   -6.4060 O.2   211  ASP211     -0.2864
     95  CB       -24.9180   -1.3240   -4.1390 C.3   211  ASP211      0.1436
     96  CG       -24.1950   -2.2090   -3.1420 C.2   211  ASP211      0.3671
     97  OD1      -23.4470   -3.1100   -3.5770 O.co2 211  ASP211     -0.2456
     98  OD2      -24.3810   -2.0090   -1.9230 O.co2 211  ASP211     -0.2456
     99  N        -23.3900   -0.3980  -12.5780 N.3   215  PRO215     -0.2116
    100  CA       -22.2180    0.4380  -12.3030 C.3   215  PRO215      0.1372
    101  C        -21.3170    0.6970  -13.5030 C.2   215  PRO215      0.2244
    102  O        -20.6390    1.7220  -13.5620 O.2   215  PRO215     -0.2868
    103  CB       -21.5040   -0.3290  -11.1940 C.3   215  PRO215      0.0268
    104  CG       -21.8180   -1.7470  -11.5290 C.3   215  PRO215      0.0207
    105  CD       -23.2950   -1.6700  -11.8390 C.3   215  PRO215      0.0892
@<TRIPOS>BOND
     1   102   101    2
     2   101   100    1
     3    99   100    1
     4    99   105    1
     5   100   103    1
     6   105   104    1
     7   104   103    1
     8    81    80    1
     9    81    75    1
    10    80    79    1
    11    79    76    1
    12    68    69    1
    13    75    76    1
    14    75    70   am
    15    69    70    1
    16    69    72    1
    17    76    77    1
    18    70    71    2
    19    73    72    1
    20    72    74    1
    21    77    78    2
    22    25    26    1
    23    27    26    1
    24    27    28    2
    25    26    29    1
    26    24    22    1
    27    94    93    2
    28    93    92    1
    29    18    19    1
    30    18    17    1
    31    18    21    1
    32    19    20    2
    33    92    91    1
    34    92    95    1
    35    21    22    1
    36    29    30    1
    37    22    23    1
    38    91    84   am
    39    95    96    1
    40    84    85    2
    41    84    83    1
    42    82    83    1
    43    83    86    1
    44    97    96   ar
    45    53    55   ar
    46    53    51   ar
    47    96    98   ar
    48    12    11    2
    49    50    51   ar
    50    50    48   ar
    51    55    54   ar
    52    51    49   ar
    53     1     2    1
    54    86    87    1
    55    11    10    1
    56    87    88    1
    57    39    37   ar
    58    39    41   ar
    59    48    47   ar
    60    37    36   ar
    61     5     2    1
    62     5     6    1
    63     2     3    1
    64    54    52   ar
    65    13    10    1
    66    13    14    1
    67    49    47   ar
    68    49    52   ar
    69     4     3    2
    70    10     9    1
    71    47    46    1
    72    33    32    1
    73    33    34    2
    74    41    40   ar
    75    32    35    1
    76    32    31    1
    77    36    35    1
    78    36    38   ar
    79    88    89    2
    80    88    90   am
    81     8     6   ar
    82     6     7   ar
    83    14    15    2
    84    14    16   am
    85    40    38   ar
    86    42    43    1
    87    46    43    1
    88    43    44    1
    89    44    45    2
    90    62    64   ar
    91    62    61   ar
    92    64    66   ar
    93    60    61    1
    94    60    57    1
    95    61    63   ar
    96    66    67    1
    97    66    65   ar
    98    63    65   ar
    99    59    58    2
   100    58    57    1
   101    57    56    1
