@<TRIPOS>MOLECULE
tmp/2rhjA02.pdb
 84 79 0 0 0
SMALL
GASTEIGER

@<TRIPOS>ATOM
      1  N        -18.0570    6.6680    5.2690 N.3   222  GLY222     -0.1210
      2  CA       -18.9910    6.0500    4.2830 C.3   222  GLY222      0.1956
      3  C        -18.3980    5.7710    2.9130 C.2   222  GLY222      0.2612
      4  O        -17.2330    6.0570    2.6570 O.2   222  GLY222     -0.2717
      5  N        -19.2110    5.2040    2.0250 N.am  223  GLU223     -0.1965
      6  CA       -18.6950    4.6040    0.8020 C.3   223  GLU223      0.1733
      7  C        -18.0140    5.6270   -0.1150 C.2   223  GLU223      0.2616
      8  O        -17.0260    5.3220   -0.7720 O.2   223  GLU223     -0.2715
      9  CB       -19.8050    3.9100   -0.0160 C.3   223  GLU223      0.0429
     10  CG       -20.5340    2.7540    0.6600 C.3   223  GLU223      0.1163
     11  CD       -21.7310    2.2760   -0.1860 C.2   223  GLU223      0.3649
     12  OE1      -21.7040    2.4940   -1.4340 O.co2 223  GLU223     -0.2457
     13  OE2      -22.6940    1.6870    0.3940 O.co2 223  GLU223     -0.2457
     14  N        -18.5890    6.8120   -0.1820 N.am  224  ASN224     -0.1958
     15  CA       -18.1070    7.8720   -1.0850 C.3   224  ASN224      0.1819
     16  C        -17.2300    8.9000   -0.3370 C.2   224  ASN224      0.2621
     17  O        -17.0930   10.0280   -0.7630 O.2   224  ASN224     -0.2715
     18  CB       -19.2770    8.5520   -1.8020 C.3   224  ASN224      0.1195
     19  CG       -20.0520    7.5650   -2.7140 C.2   224  ASN224      0.2630
     20  OD1      -19.5710    7.1930   -3.7970 O.2   224  ASN224     -0.2716
     21  ND2      -21.2260    7.1390   -2.2660 N.am  224  ASN224     -0.0877
     22  N        -16.5880    8.4370    0.7170 N.am  225  ARG225     -0.1977
     23  CA       -15.8410    9.3260    1.6250 C.3   225  ARG225      0.1597
     24  C        -14.6620   10.0540    0.9390 C.2   225  ARG225      0.2287
     25  O        -14.3850   11.2290    1.2320 O.2   225  ARG225     -0.2864
     26  CB       -15.3330    8.5300    2.8100 C.3   225  ARG225      0.0334
     27  CG       -14.4290    7.3840    2.4170 C.3   225  ARG225      0.0492
     28  CD       -14.0330    6.5320    3.5840 C.3   225  ARG225      0.2205
     29  NE       -13.0190    5.5930    3.1470 N.pl3 225  ARG225     -0.0865
     30  CZ       -12.3730    4.7570    3.9500 C.cat 225  ARG225      0.5346
     31  NH1      -12.6090    4.7550    5.2470 N.pl3 225  ARG225      0.1354
     32  NH2      -11.4630    3.9330    3.4400 N.pl3 225  ARG225      0.1354
     33  N         -8.4380    0.5390    5.8250 N.3   258  ASN258     -0.1240
     34  CA        -9.3820    0.3390    4.7090 C.3   258  ASN258      0.1653
     35  C         -9.3080    1.4180    3.5960 C.2   258  ASN258      0.2266
     36  O        -10.0770    1.3920    2.6180 O.2   258  ASN258     -0.2867
     37  CB       -10.8200    0.1050    5.1970 C.3   258  ASN258      0.1155
     38  CG       -11.4740    1.3570    5.8160 C.2   258  ASN258      0.2627
     39  OD1      -10.8900    2.4460    5.8180 O.2   258  ASN258     -0.2716
     40  ND2      -12.6640    1.1760    6.4100 N.am  258  ASN258     -0.0877
     41  N         -7.8340    2.7660    0.3440 N.3   260  SER260     -0.1217
     42  CA        -7.1640    2.1680   -0.8210 C.3   260  SER260      0.1889
     43  C         -6.4840    3.1540   -1.7190 C.2   260  SER260      0.2288
     44  O         -6.8120    4.3510   -1.7810 O.2   260  SER260     -0.2866
     45  CB        -8.2020    1.3870   -1.6770 C.3   260  SER260      0.2089
     46  OG        -9.1050    2.2990   -2.3200 O.3   260  SER260     -0.2183
     47  N         -7.0210    3.4170   -4.8010 N.3   262  TYR262     -0.1227
     48  CA        -8.0260    4.0060   -5.6990 C.3   262  TYR262      0.1736
     49  C         -8.6280    5.3120   -5.1160 C.2   262  TYR262      0.2595
     50  O         -8.7920    6.3250   -5.8070 O.2   262  TYR262     -0.2718
     51  CB        -9.1700    3.0150   -6.0150 C.3   262  TYR262      0.0548
     52  CG       -10.2910    3.7240   -6.7180 C.ar  262  TYR262     -0.0200
     53  CD1      -10.1970    4.0550   -8.0650 C.ar  262  TYR262     -0.0009
     54  CD2      -11.3890    4.1800   -6.0080 C.ar  262  TYR262     -0.0009
     55  CE1      -11.2290    4.7990   -8.6980 C.ar  262  TYR262      0.0417
     56  CE2      -12.4050    4.9090   -6.6150 C.ar  262  TYR262      0.0417
     57  CZ       -12.3280    5.2130   -7.9550 C.ar  262  TYR262      0.1957
     58  OH       -13.3490    5.9590   -8.5170 O.3   262  TYR262     -0.2866
     59  N         -8.9650    5.2290   -3.8490 N.am  263  GLU263     -0.1979
     60  CA        -9.4910    6.3700   -3.0770 C.3   263  GLU263      0.1602
     61  C         -8.4890    7.5330   -3.0510 C.2   263  GLU263      0.2287
     62  O         -8.8590    8.7140   -3.2190 O.2   263  GLU263     -0.2864
     63  CB        -9.8490    5.8880   -1.6610 C.3   263  GLU263      0.0415
     64  CG       -11.1760    5.1110   -1.5680 C.3   263  GLU263      0.1163
     65  CD       -11.5270    4.7780   -0.1340 C.2   263  GLU263      0.3649
     66  OE1      -10.7430    4.0690    0.5110 O.co2 263  GLU263     -0.2457
     67  OE2      -12.5620    5.2620    0.3820 O.co2 263  GLU263     -0.2457
     68  N         -8.5170    9.0280   -6.5250 N.3   266  GLU266     -0.1245
     69  CA        -9.7760    9.6970   -6.8010 C.3   266  GLU266      0.1567
     70  C         -9.8140   11.1140   -6.1670 C.2   266  GLU266      0.2260
     71  O        -10.2050   12.1130   -6.7840 O.2   266  GLU266     -0.2867
     72  CB       -10.9120    8.8410   -6.2570 C.3   266  GLU266      0.0388
     73  CG       -12.2630    9.2920   -6.6640 C.3   266  GLU266      0.1160
     74  CD       -13.3290    8.6350   -5.8520 C.2   266  GLU266      0.3649
     75  OE1      -13.3180    8.8860   -4.6490 O.co2 266  GLU266     -0.2457
     76  OE2      -14.1590    7.8720   -6.4030 O.co2 266  GLU266     -0.2457
     77  N        -13.5830    4.2170    9.6790 N.3   293  ASP293     -0.1239
     78  CA       -14.1790    4.5940    8.4000 C.3   293  ASP293      0.1674
     79  C        -13.9230    6.0700    8.0660 C.2   293  ASP293      0.2266
     80  O        -14.2380    6.4950    6.9890 O.2   293  ASP293     -0.2867
     81  CB       -15.7100    4.3660    8.4130 C.3   293  ASP293      0.1410
     82  CG       -16.1080    2.9000    8.3030 C.2   293  ASP293      0.3668
     83  OD1      -15.3200    2.0990    7.7610 O.co2 293  ASP293     -0.2456
     84  OD2      -17.2390    2.5550    8.7420 O.co2 293  ASP293     -0.2456
@<TRIPOS>BOND
     1    55    53   ar
     2    55    57   ar
     3    58    57    1
     4    53    52   ar
     5    57    56   ar
     6    69    68    1
     7    69    72    1
     8    69    70    1
     9    71    70    2
    10    52    51    1
    11    52    54   ar
    12    73    72    1
    13    73    74    1
    14    56    54   ar
    15    76    74   ar
    16    51    48    1
    17    74    75   ar
    18    50    49    2
    19    48    49    1
    20    48    47    1
    21    49    59   am
    22    59    60    1
    23    20    19    2
    24    62    61    2
    25    60    61    1
    26    60    63    1
    27    19    21   am
    28    19    18    1
    29    46    45    1
    30    18    15    1
    31    44    43    2
    32    43    42    1
    33    45    42    1
    34    63    64    1
    35    64    65    1
    36    12    11   ar
    37    15    16    1
    38    15    14    1
    39    42    41    1
    40     8     7    2
    41    17    16    2
    42    16    22   am
    43    11    13   ar
    44    11    10    1
    45    14     7   am
    46    65    67   ar
    47    65    66   ar
    48     7     6    1
    49     9    10    1
    50     9     6    1
    51    22    23    1
    52     6     5    1
    53    24    25    2
    54    24    23    1
    55    23    26    1
    56     5     3   am
    57    27    26    1
    58    27    28    1
    59    36    35    2
    60     4     3    2
    61     3     2    1
    62    29    28    1
    63    29    30    2
    64    32    30    1
    65    35    34    1
    66    30    31    1
    67     2     1    1
    68    34    37    1
    69    34    33    1
    70    37    38    1
    71    38    39    2
    72    38    40   am
    73    80    79    2
    74    83    82   ar
    75    79    78    1
    76    82    81    1
    77    82    84   ar
    78    78    81    1
    79    78    77    1
