@<TRIPOS>MOLECULE
tmp/2rhjA00.pdb
 69 63 0 0 0
SMALL
GASTEIGER

@<TRIPOS>ATOM
      1  N         -7.6150   27.2490   -7.6540 N.3   244  ASP244     -0.1225
      2  CA        -7.1150   27.5260   -9.0210 C.3   244  ASP244      0.1805
      3  C         -6.2340   28.7570   -9.0850 C.2   244  ASP244      0.2598
      4  O         -5.5610   28.9840  -10.0840 O.2   244  ASP244     -0.2718
      5  CB        -8.2430   27.6330  -10.0700 C.3   244  ASP244      0.1424
      6  CG        -9.3290   28.6200   -9.6950 C.2   244  ASP244      0.3668
      7  OD1       -9.0630   29.5840   -8.9930 O.co2 244  ASP244     -0.2456
      8  OD2      -10.5000   28.4190  -10.1080 O.co2 244  ASP244     -0.2456
      9  N         -6.2190   29.5490   -8.0190 N.am  245  GLY245     -0.1942
     10  CA        -5.2060   30.6000   -7.8650 C.3   245  GLY245      0.2014
     11  C         -3.8040   30.1930   -7.4320 C.2   245  GLY245      0.2639
     12  O         -2.9050   30.9980   -7.4340 O.2   245  GLY245     -0.2714
     13  N         -3.6400   28.9660   -6.9650 N.am  246  ALA246     -0.1963
     14  CA        -2.4070   28.5120   -6.4060 C.3   246  ALA246      0.1728
     15  C         -1.3860   28.0980   -7.4570 C.2   246  ALA246      0.2616
     16  O         -1.7490   27.4750   -8.4820 O.2   246  ALA246     -0.2715
     17  CB        -2.7030   27.2990   -5.4850 C.3   246  ALA246      0.0334
     18  N         -0.1160   28.3420   -7.1570 N.am  247  GLN247     -0.1977
     19  CA         1.0120   27.8970   -7.9580 C.3   247  GLN247      0.1601
     20  C          1.4240   26.4740   -7.6110 C.2   247  GLN247      0.2287
     21  O          1.8400   25.7150   -8.4890 O.2   247  GLN247     -0.2864
     22  CB         2.2190   28.8430   -7.8010 C.3   247  GLN247      0.0394
     23  CG         1.9580   30.2500   -8.3020 C.3   247  GLN247      0.0908
     24  CD         3.1210   31.1490   -7.9750 C.2   247  GLN247      0.2608
     25  OE1        4.2550   30.8480   -8.3650 O.2   247  GLN247     -0.2717
     26  NE2        2.8740   32.2230   -7.1980 N.am  247  GLN247     -0.0878
     27  N         -5.1930   24.9750  -11.2220 N.3   276  ASP276     -0.1239
     28  CA        -4.7280   25.4700  -12.5100 C.3   276  ASP276      0.1674
     29  C         -4.1410   24.3040  -13.3050 C.2   276  ASP276      0.2266
     30  O         -3.4370   23.4570  -12.7570 O.2   276  ASP276     -0.2867
     31  CB        -3.7050   26.5930  -12.3400 C.3   276  ASP276      0.1410
     32  CG        -3.4400   27.3240  -13.6330 C.2   276  ASP276      0.3668
     33  OD1       -4.1250   28.3320  -13.8850 O.co2 276  ASP276     -0.2456
     34  OD2       -2.5620   26.8770  -14.3830 O.co2 276  ASP276     -0.2456
     35  N         -1.6740   24.3160  -15.0620 N.3   278  ASP278     -0.1225
     36  CA        -0.2240   24.3410  -14.9120 C.3   278  ASP278      0.1805
     37  C          0.2740   24.3020  -13.4430 C.2   278  ASP278      0.2597
     38  O          1.4450   24.5910  -13.1680 O.2   278  ASP278     -0.2718
     39  CB         0.3310   25.5880  -15.6230 C.3   278  ASP278      0.1424
     40  CG        -0.0130   25.6110  -17.1070 C.2   278  ASP278      0.3668
     41  OD1        0.1780   24.5730  -17.7690 O.co2 278  ASP278     -0.2456
     42  OD2       -0.4940   26.6510  -17.6060 O.co2 278  ASP278     -0.2456
     43  N         -0.6000   23.9470  -12.4990 N.am  279  VAL279     -0.1980
     44  CA        -0.1960   23.7890  -11.0980 C.3   279  VAL279      0.1595
     45  C          0.9230   22.7540  -10.9550 C.2   279  VAL279      0.2287
     46  O          1.0680   21.7950  -11.7440 O.2   279  VAL279     -0.2864
     47  CB        -1.4040   23.3770  -10.2150 C.3   279  VAL279      0.0276
     48  CG1       -1.7410   21.9170  -10.4490 C.3   279  VAL279      0.0022
     49  CG2       -1.1120   23.6410   -8.6910 C.3   279  VAL279      0.0022
     50  N          1.6050   29.9270   -3.0710 N.3   303  GLY303     -0.1225
     51  CA         1.7810   30.8550   -4.1880 C.3   303  GLY303      0.1811
     52  C          0.6140   31.7430   -4.5400 C.2   303  GLY303      0.2280
     53  O          0.4990   32.2110   -5.6910 O.2   303  GLY303     -0.2866
     54  N         -0.7140   35.1740   -4.7720 N.3   305  LEU305     -0.1245
     55  CA        -0.1610   36.5360   -4.6790 C.3   305  LEU305      0.1561
     56  C         -1.1570   37.3820   -3.9270 C.2   305  LEU305      0.2260
     57  O         -2.3030   37.5710   -4.3540 O.2   305  LEU305     -0.2867
     58  CB         0.1080   37.0930   -6.0860 C.3   305  LEU305      0.0270
     59  CG         1.0230   36.2040   -6.9200 C.3   305  LEU305      0.0019
     60  CD1        1.2630   36.7690   -8.2780 C.3   305  LEU305      0.0001
     61  CD2        2.3660   35.9990   -6.2480 C.3   305  LEU305      0.0001
     62  N         -3.5680   40.1010   -5.4900 N.3   308  LEU308     -0.1245
     63  CA        -4.7000   39.6390   -6.2920 C.3   308  LEU308      0.1561
     64  C         -5.9840   39.5580   -5.5120 C.2   308  LEU308      0.2260
     65  O         -7.0650   39.6600   -6.0870 O.2   308  LEU308     -0.2867
     66  CB        -4.3730   38.2940   -6.9640 C.3   308  LEU308      0.0270
     67  CG        -5.3690   37.6900   -7.9580 C.3   308  LEU308      0.0019
     68  CD1       -5.6780   38.7160   -9.0590 C.3   308  LEU308      0.0001
     69  CD2       -4.7590   36.3890   -8.5180 C.3   308  LEU308      0.0001
@<TRIPOS>BOND
     1    41    40   ar
     2    42    40   ar
     3    40    39    1
     4    39    36    1
     5    35    36    1
     6    36    37    1
     7    34    32   ar
     8    33    32   ar
     9    32    31    1
    10    37    38    2
    11    37    43   am
    12    29    30    2
    13    29    28    1
    14    28    31    1
    15    28    27    1
    16    43    44    1
    17    46    45    2
    18    44    45    1
    19    44    47    1
    20    48    47    1
    21    47    49    1
    22     8     6   ar
    23     4     3    2
    24     5     6    1
    25     5     2    1
    26     6     7   ar
    27     3     2    1
    28     3     9   am
    29    68    67    1
    30     2     1    1
    31    69    67    1
    32    21    20    2
    33    16    15    2
    34    25    24    2
    35    23    24    1
    36    23    22    1
    37    60    59    1
    38     9    10    1
    39    24    26   am
    40    19    22    1
    41    19    20    1
    42    19    18    1
    43    67    66    1
    44    10    11    1
    45    15    18   am
    46    15    14    1
    47    12    11    2
    48    11    13   am
    49    13    14    1
    50    66    63    1
    51    59    61    1
    52    59    58    1
    53    14    17    1
    54    63    64    1
    55    63    62    1
    56    65    64    2
    57    58    55    1
    58    53    52    2
    59    54    55    1
    60    55    56    1
    61    52    51    1
    62    57    56    2
    63    51    50    1
