@<TRIPOS>MOLECULE
tmp/2rhlB00.pdb
 154 141 0 0 0
SMALL
GASTEIGER

@<TRIPOS>ATOM
      1  N         -6.5510  -20.9830  -33.9900 N.3     8  VAL8       -0.1231
      2  CA        -6.2330  -21.2130  -32.5820 C.3     8  VAL8        0.1692
      3  C         -7.4260  -20.8140  -31.7480 C.2     8  VAL8        0.2593
      4  O         -7.8690  -19.6760  -31.8160 O.2     8  VAL8       -0.2718
      5  CB        -5.0010  -20.3680  -32.1660 C.3     8  VAL8        0.0266
      6  CG1       -4.5540  -20.6930  -30.7760 C.3     8  VAL8        0.0020
      7  CG2       -3.8730  -20.5960  -33.1350 C.3     8  VAL8        0.0020
      8  N         -7.9580  -21.7480  -30.9740 N.am    9  GLY9       -0.1942
      9  CA        -9.1590  -21.5050  -30.1910 C.3     9  GLY9        0.2014
     10  C        -10.4010  -21.6000  -31.0540 C.2     9  GLY9        0.2639
     11  O        -10.3010  -21.8140  -32.2560 O.2     9  GLY9       -0.2714
     12  N        -11.5760  -21.4330  -30.4490 N.am   10  GLY10      -0.1939
     13  CA       -12.8660  -21.6640  -31.1320 C.3    10  GLY10       0.2014
     14  C        -13.1540  -20.7920  -32.3370 C.2    10  GLY10       0.2639
     15  O        -13.5500  -21.2760  -33.3960 O.2    10  GLY10      -0.2714
     16  N        -12.9540  -19.4880  -32.1750 N.am   11  GLY11      -0.1939
     17  CA       -13.1600  -18.5330  -33.2630 C.3    11  GLY11       0.2014
     18  C        -12.1840  -18.7810  -34.3840 C.2    11  GLY11       0.2639
     19  O        -12.5600  -18.7780  -35.5360 O.2    11  GLY11      -0.2714
     20  N        -10.9240  -18.9750  -34.0350 N.am   12  GLY12      -0.1954
     21  CA        -9.9140  -19.4060  -34.9820 C.3    12  GLY12       0.1869
     22  C        -10.3170  -20.6420  -35.7660 C.2    12  GLY12       0.2309
     23  O        -10.2380  -20.6580  -36.9880 O.2    12  GLY12      -0.2863
     24  N        -13.3390  -21.9500  -36.1720 N.3    14  ASN14      -0.1240
     25  CA       -14.5280  -21.6760  -36.9780 C.3    14  ASN14       0.1653
     26  C        -14.1720  -20.8860  -38.2440 C.2    14  ASN14       0.2266
     27  O        -14.7160  -21.1600  -39.3130 O.2    14  ASN14      -0.2867
     28  CB       -15.6180  -20.9540  -36.1750 C.3    14  ASN14       0.1155
     29  CG       -16.2860  -21.8550  -35.1240 C.2    14  ASN14       0.2627
     30  OD1      -16.1100  -23.0520  -35.1370 O.2    14  ASN14      -0.2716
     31  ND2      -17.0590  -21.2590  -34.2170 N.am   14  ASN14      -0.0877
     32  N         -6.6250  -26.3640  -30.3740 N.3    33  ASN33      -0.1240
     33  CA        -7.4810  -26.0840  -29.2340 C.3    33  ASN33       0.1653
     34  C         -7.0390  -26.8070  -27.9390 C.2    33  ASN33       0.2266
     35  O         -6.3830  -27.8500  -27.9590 O.2    33  ASN33      -0.2867
     36  CB        -8.9260  -26.4140  -29.6000 C.3    33  ASN33       0.1155
     37  CG        -9.9380  -25.5170  -28.9060 C.2    33  ASN33       0.2627
     38  OD1       -9.7520  -25.1070  -27.7650 O.2    33  ASN33      -0.2716
     39  ND2      -11.0280  -25.2220  -29.5970 N.am   33  ASN33      -0.0877
     40  N         -9.9350  -23.8990  -21.7290 N.3    60  ALA60      -0.1245
     41  CA        -9.0850  -22.9000  -21.0610 C.3    60  ALA60       0.1562
     42  C         -9.8200  -21.9440  -20.1560 C.2    60  ALA60       0.2260
     43  O         -9.1940  -21.0170  -19.6210 O.2    60  ALA60      -0.2867
     44  CB        -8.2570  -22.1120  -22.0990 C.3    60  ALA60       0.0290
     45  N        -11.6170  -19.4840  -20.6110 N.3    62  ALA62      -0.1245
     46  CA       -11.5080  -18.0660  -21.0270 C.3    62  ALA62       0.1562
     47  C        -10.3480  -17.3610  -20.3080 C.2    62  ALA62       0.2260
     48  O        -10.3580  -16.1450  -20.1330 O.2    62  ALA62      -0.2867
     49  CB       -12.8910  -17.3200  -20.8370 C.3    62  ALA62       0.0290
     50  N         -9.7680  -15.4520  -32.6890 N.3    93  GLY93      -0.1210
     51  CA       -10.5490  -14.3850  -32.1230 C.3    93  GLY93       0.1956
     52  C         -9.9060  -14.0560  -30.8140 C.2    93  GLY93       0.2611
     53  O         -9.8390  -14.9090  -29.9350 O.2    93  GLY93      -0.2717
     54  N         -9.3890  -12.8480  -30.6810 N.am   94  MET94      -0.1979
     55  CA        -8.7850  -12.4280  -29.3980 C.3    94  MET94       0.1605
     56  C         -9.8670  -12.0780  -28.3910 C.2    94  MET94       0.2287
     57  O        -10.9110  -11.5100  -28.7610 O.2    94  MET94      -0.2864
     58  CB        -7.8870  -11.2040  -29.5660 C.3    94  MET94       0.0413
     59  CG        -6.6750  -11.3940  -30.4440 C.3    94  MET94       0.0598
     60  SD        -5.2890  -12.3480  -29.7700 S.3    94  MET94      -0.1393
     61  CE        -5.6820  -13.8540  -30.5990 C.3    94  MET94       0.0692
     62  N        -10.6500  -14.3990  -25.6060 N.3    96  GLY96      -0.1210
     63  CA       -10.8610  -15.6290  -24.8460 C.3    96  GLY96       0.1956
     64  C         -9.5840  -16.1400  -24.1800 C.2    96  GLY96       0.2612
     65  O         -8.6660  -15.3620  -23.8690 O.2    96  GLY96      -0.2717
     66  N         -9.5380  -17.4470  -23.9520 N.am   97  GLY97      -0.1942
     67  CA        -8.3990  -18.0880  -23.3040 C.3    97  GLY97       0.2014
     68  C         -7.3820  -18.6620  -24.2650 C.2    97  GLY97       0.2640
     69  O         -6.2440  -18.2440  -24.2550 O.2    97  GLY97      -0.2714
     70  N         -7.7930  -19.5980  -25.1120 N.am   98  THR98      -0.1936
     71  CA        -6.8540  -20.3120  -26.0020 C.3    98  THR98       0.2028
     72  C         -6.2820  -19.4280  -27.1020 C.2    98  THR98       0.2642
     73  O         -5.0860  -19.4170  -27.3470 O.2    98  THR98      -0.2714
     74  CB        -7.5150  -21.5440  -26.6350 C.3    98  THR98       0.1808
     75  OG1       -8.0940  -22.3500  -25.5990 O.3    98  THR98      -0.2208
     76  CG2       -6.4900  -22.3570  -27.4370 C.3    98  THR98       0.0379
     77  N         -7.1440  -18.6680  -27.7540 N.am   99  GLY99      -0.1954
     78  CA        -6.6970  -17.7380  -28.7960 C.3    99  GLY99       0.1869
     79  C         -5.7510  -16.6990  -28.2470 C.2    99  GLY99       0.2309
     80  O         -4.6350  -16.5870  -28.7090 O.2    99  GLY99      -0.2863
     81  N         -9.2400  -10.8850  -34.5420 N.3   122  THR122     -0.1218
     82  CA       -10.2940   -9.9280  -34.2150 C.3   122  THR122      0.1862
     83  C        -10.1810   -9.4460  -32.7710 C.2   122  THR122      0.2287
     84  O         -9.6910  -10.1900  -31.9040 O.2   122  THR122     -0.2866
     85  CB       -11.6970  -10.5520  -34.3720 C.3   122  THR122      0.1770
     86  OG1      -11.8090  -11.7190  -33.5390 O.3   122  THR122     -0.2211
     87  CG2      -12.0130  -10.9040  -35.8550 C.3   122  THR122      0.0375
     88  N        -12.9090   -8.3060  -29.7990 N.3   124  PRO124     -0.2116
     89  CA       -14.3340   -8.6360  -29.5940 C.3   124  PRO124      0.1372
     90  C        -15.2920   -7.4350  -29.6500 C.2   124  PRO124      0.2244
     91  O        -14.8710   -6.2940  -29.4750 O.2   124  PRO124     -0.2868
     92  CB       -14.3470   -9.2780  -28.2180 C.3   124  PRO124      0.0268
     93  CG       -13.1660   -8.6860  -27.5100 C.3   124  PRO124      0.0207
     94  CD       -12.1320   -8.3720  -28.5490 C.3   124  PRO124      0.0892
     95  N        -19.4070   -7.5970  -25.7510 N.3   128  GLU128     -0.1245
     96  CA       -18.9080   -8.8010  -25.1130 C.3   128  GLU128      0.1567
     97  C        -18.4010   -8.5360  -23.7020 C.2   128  GLU128      0.2260
     98  O        -18.2080   -9.4810  -22.9450 O.2   128  GLU128     -0.2867
     99  CB       -17.8520   -9.4810  -25.9920 C.3   128  GLU128      0.0388
    100  CG       -18.4200   -9.9670  -27.3160 C.3   128  GLU128      0.1160
    101  CD       -17.4310  -10.7530  -28.0880 C.2   128  GLU128      0.3649
    102  OE1      -16.9350  -11.7070  -27.5300 O.co2 128  GLU128     -0.2457
    103  OE2      -17.1190  -10.4070  -29.2360 O.co2 128  GLU128     -0.2457
    104  N        -13.3650   -9.3030  -21.7360 N.3   132  ARG132     -0.1245
    105  CA       -12.9010   -9.7760  -23.0230 C.3   132  ARG132      0.1563
    106  C        -12.1240   -8.7220  -23.7740 C.2   132  ARG132      0.2260
    107  O        -11.1270   -9.0760  -24.3930 O.2   132  ARG132     -0.2867
    108  CB       -14.0080  -10.3510  -23.8920 C.3   132  ARG132      0.0307
    109  CG       -14.5480  -11.6430  -23.3460 C.3   132  ARG132      0.0489
    110  CD       -14.5690  -12.7390  -24.3600 C.3   132  ARG132      0.2205
    111  NE       -14.7590  -14.0050  -23.6670 N.pl3 132  ARG132     -0.0865
    112  CZ       -14.7710  -15.1970  -24.2410 C.cat 132  ARG132      0.5346
    113  NH1      -14.6230  -15.3220  -25.5440 N.pl3 132  ARG132      0.1354
    114  NH2      -14.9450  -16.2730  -23.4850 N.pl3 132  ARG132      0.1354
    115  N        -14.2720   -6.3700  -34.3310 N.3   155  ASN155     -0.1240
    116  CA       -15.6480   -6.8020  -34.6510 C.3   155  ASN155      0.1653
    117  C        -16.6420   -5.6430  -34.6500 C.2   155  ASN155      0.2266
    118  O        -17.5740   -5.6390  -35.4220 O.2   155  ASN155     -0.2867
    119  CB       -16.1350   -7.9060  -33.7150 C.3   155  ASN155      0.1155
    120  CG       -15.8580   -9.2890  -34.2610 C.2   155  ASN155      0.2627
    121  OD1      -16.3980   -9.6630  -35.2960 O.2   155  ASN155     -0.2716
    122  ND2      -15.0160  -10.0640  -33.5710 N.am  155  ASN155     -0.0877
    123  N        -20.8370  -13.8140  -35.5940 N.3   172  PHE172     -0.1241
    124  CA       -19.4480  -14.1040  -35.8520 C.3   172  PHE172      0.1605
    125  C        -19.2340  -14.7270  -37.2030 C.2   172  PHE172      0.2264
    126  O        -18.1010  -15.0420  -37.5370 O.2   172  PHE172     -0.2867
    127  CB       -18.8460  -14.9710  -34.7400 C.3   172  PHE172      0.0534
    128  CG       -18.9160  -14.3280  -33.4040 C.ar  172  PHE172     -0.0203
    129  CD1      -18.0480  -13.3100  -33.0730 C.ar  172  PHE172     -0.0042
    130  CD2      -19.8850  -14.6930  -32.4950 C.ar  172  PHE172     -0.0042
    131  CE1      -18.1260  -12.6860  -31.8330 C.ar  172  PHE172     -0.0003
    132  CE2      -19.9670  -14.0640  -31.2630 C.ar  172  PHE172     -0.0003
    133  CZ       -19.0890  -13.0610  -30.9420 C.ar  172  PHE172     -0.0000
    134  N        -17.3870  -12.2370  -39.1090 N.3   175  ALA175     -0.1231
    135  CA       -16.0410  -12.3620  -38.5170 C.3   175  ALA175      0.1694
    136  C        -15.2610  -13.4890  -39.1830 C.2   175  ALA175      0.2592
    137  O        -14.1150  -13.2800  -39.5670 O.2   175  ALA175     -0.2718
    138  CB       -16.0920  -12.5790  -36.9710 C.3   175  ALA175      0.0304
    139  N        -15.8800  -14.6660  -39.3340 N.am  176  ASP176     -0.1974
    140  CA       -15.2430  -15.7890  -40.0370 C.3   176  ASP176      0.1709
    141  C        -14.8090  -15.3620  -41.4380 C.2   176  ASP176      0.2293
    142  O        -13.7200  -15.6790  -41.9000 O.2   176  ASP176     -0.2864
    143  CB       -16.1920  -16.9880  -40.1530 C.3   176  ASP176      0.1436
    144  CG       -16.4420  -17.7060  -38.8150 C.2   176  ASP176      0.3671
    145  OD1      -15.6360  -17.5760  -37.8800 O.co2 176  ASP176     -0.2456
    146  OD2      -17.4490  -18.4370  -38.6990 O.co2 176  ASP176     -0.2456
    147  N        -11.7750  -12.7610  -41.5120 N.3   179  LEU179     -0.1245
    148  CA       -10.5010  -13.4560  -41.2540 C.3   179  LEU179      0.1561
    149  C        -10.0230  -14.1910  -42.4840 C.2   179  LEU179      0.2260
    150  O         -8.8540  -14.0900  -42.8630 O.2   179  LEU179     -0.2867
    151  CB       -10.6170  -14.4140  -40.0860 C.3   179  LEU179      0.0270
    152  CG       -10.8300  -13.6910  -38.7530 C.3   179  LEU179      0.0019
    153  CD1      -11.1730  -14.6740  -37.6620 C.3   179  LEU179      0.0001
    154  CD2       -9.6090  -12.8230  -38.3750 C.3   179  LEU179      0.0001
@<TRIPOS>BOND
     1   150   149    2
     2   149   148    1
     3   142   141    2
     4   147   148    1
     5   141   140    1
     6   148   151    1
     7   143   140    1
     8   143   144    1
     9   151   152    1
    10   140   139    1
    11   137   136    2
    12   139   136   am
    13    27    26    2
    14   136   135    1
    15   134   135    1
    16   144   146   ar
    17   144   145   ar
    18   152   154    1
    19   152   153    1
    20   135   138    1
    21    26    25    1
    22   126   125    2
    23   125   124    1
    24    23    22    2
    25    25    28    1
    26    25    24    1
    27    28    29    1
    28    87    85    1
    29   124   123    1
    30   124   127    1
    31    22    21    1
    32    19    18    2
    33   118   117    2
    34   121   120    2
    35    30    29    2
    36    29    31   am
    37    21    20    1
    38   127   128    1
    39   116   117    1
    40   116   115    1
    41   116   119    1
    42    81    82    1
    43    18    20   am
    44    18    17    1
    45    85    82    1
    46    85    86    1
    47   120   119    1
    48   120   122   am
    49    82    83    1
    50     1     2    1
    51   128   129   ar
    52   128   130   ar
    53    15    14    2
    54    17    16    1
    55     7     5    1
    56   129   131   ar
    57    83    84    2
    58    50    51    1
    59     2     5    1
    60     2     3    1
    61   130   132   ar
    62    14    16   am
    63    14    13    1
    64    11    10    2
    65     5     6    1
    66    51    52    1
    67   131   133   ar
    68     4     3    2
    69     3     8   am
    70   132   133   ar
    71    13    12    1
    72    10    12   am
    73    10     9    1
    74     8     9    1
    75    52    54   am
    76    52    53    2
    77    54    55    1
    78    61    60    1
    79    59    60    1
    80    59    58    1
    81    32    33    1
    82    88    89    1
    83    88    94    1
    84    90    89    1
    85    90    91    2
    86    36    33    1
    87    36    37    1
    88    39    37   am
    89    89    92    1
    90    58    55    1
    91    55    56    1
    92   103   101   ar
    93    33    34    1
    94    37    38    2
    95    78    79    1
    96    78    77    1
    97    57    56    2
    98    80    79    2
    99    94    93    1
   100    92    93    1
   101   101   102   ar
   102   101   100    1
   103    35    34    2
   104    77    72   am
   105    76    74    1
   106    73    72    2
   107   100    99    1
   108    72    71    1
   109    74    71    1
   110    74    75    1
   111    71    70    1
   112    99    96    1
   113    95    96    1
   114    62    63    1
   115   113   112    1
   116    96    97    1
   117    70    68   am
   118    63    64    1
   119   107   106    2
   120   110   111    1
   121   110   109    1
   122    68    69    2
   123    68    67    1
   124   112   111    2
   125   112   114    1
   126    64    66   am
   127    64    65    2
   128    66    67    1
   129   108   109    1
   130   108   105    1
   131   106   105    1
   132    97    98    2
   133   105   104    1
   134    44    41    1
   135    40    41    1
   136    41    42    1
   137    46    49    1
   138    46    45    1
   139    46    47    1
   140    47    48    2
   141    42    43    2
