@<TRIPOS>MOLECULE
tmp/2rhmB00.pdb
 90 84 0 0 0
SMALL
GASTEIGER

@<TRIPOS>ATOM
      1  N         19.0260   12.6850    2.3160 N.3    13  PRO13      -0.2102
      2  CA        20.1010   13.3260    1.5680 C.3    13  PRO13       0.1504
      3  C         19.8250   13.4140    0.0540 C.2    13  PRO13       0.2575
      4  O         19.2920   12.4780   -0.5560 O.2    13  PRO13      -0.2718
      5  CB        21.2950   12.4260    1.8730 C.3    13  PRO13       0.0282
      6  CG        21.0020   11.9260    3.2800 C.3    13  PRO13       0.0208
      7  CD        19.5360   11.6320    3.2120 C.3    13  PRO13       0.0893
      8  N         20.1330   14.5760   -0.5100 N.am   14  ALA14      -0.1980
      9  CA        19.9690   14.8700   -1.9430 C.3    14  ALA14       0.1597
     10  C         18.5260   15.1530   -2.4090 C.2    14  ALA14       0.2287
     11  O         18.2870   15.3000   -3.5960 O.2    14  ALA14      -0.2864
     12  CB        20.6470   13.7970   -2.8170 C.3    14  ALA14       0.0319
     13  N         16.6250   19.5980    0.0090 N.3    17  LYS17      -0.1231
     14  CA        16.4880   20.3660    1.2470 C.3    17  LYS17       0.1693
     15  C         17.5410   21.4570    1.4200 C.2    17  LYS17       0.2592
     16  O         17.2570   22.5170    1.9910 O.2    17  LYS17      -0.2718
     17  CB        16.4430   19.4320    2.4690 C.3    17  LYS17       0.0285
     18  CG        17.6680   18.5710    2.6650 C.3    17  LYS17       0.0035
     19  CD        17.5200   17.7050    3.9440 C.3    17  LYS17       0.0206
     20  CE        18.6410   16.7040    4.0790 C.3    17  LYS17       0.1093
     21  NZ        19.9840   17.3060    4.0730 N.3    17  LYS17      -0.1314
     22  N         18.7510   21.2420    0.9250 N.am   18  THR18      -0.1953
     23  CA        19.7710   22.2720    1.0580 C.3    18  THR18       0.1897
     24  C         19.3760   23.5070    0.2490 C.2    18  THR18       0.2313
     25  O         19.2790   24.6240    0.7710 O.2    18  THR18      -0.2863
     26  CB        21.1440   21.7830    0.5810 C.3    18  THR18       0.1794
     27  OG1       21.4830   20.5950    1.2880 O.3    18  THR18      -0.2208
     28  CG2       22.1640   22.8350    0.8210 C.3    18  THR18       0.0378
     29  N         24.6910   19.7590    7.9270 N.3    36  ASP36      -0.1239
     30  CA        25.8550   19.5200    7.0850 C.3    36  ASP36       0.1674
     31  C         26.8060   20.7190    7.0510 C.2    36  ASP36       0.2266
     32  O         28.0350   20.5250    7.0450 O.2    36  ASP36      -0.2867
     33  CB        25.4400   19.0650    5.6870 C.3    36  ASP36       0.1410
     34  CG        25.0980   17.5680    5.6230 C.2    36  ASP36       0.3668
     35  OD1       25.2920   16.8120    6.5990 O.co2  36  ASP36      -0.2456
     36  OD2       24.6510   17.1350    4.5510 O.co2  36  ASP36      -0.2456
     37  N         23.5130   11.9830   -5.7780 N.3   116  ILE116     -0.1245
     38  CA        24.5360   11.5520   -4.8400 C.3   116  ILE116      0.1561
     39  C         25.8460   11.3210   -5.5850 C.2   116  ILE116      0.2260
     40  O         26.8950   11.8360   -5.1910 O.2   116  ILE116     -0.2867
     41  CB        24.0920   10.2740   -4.0950 C.3   116  ILE116      0.0252
     42  CG1       23.0320   10.6340   -3.0610 C.3   116  ILE116      0.0019
     43  CG2       25.2700    9.5950   -3.4030 C.3   116  ILE116      0.0019
     44  CD1       22.4090    9.4480   -2.4010 C.3   116  ILE116      0.0001
     45  N         27.3310   14.6860   -7.2530 N.3   119  ARG119     -0.1231
     46  CA        27.8290   15.6060   -6.2240 C.3   119  ARG119      0.1694
     47  C         29.1700   15.1560   -5.6600 C.2   119  ARG119      0.2591
     48  O         30.0340   15.9790   -5.3780 O.2   119  ARG119     -0.2718
     49  CB        26.7980   15.7820   -5.1040 C.3   119  ARG119      0.0321
     50  CG        25.6130   16.6100   -5.5500 C.3   119  ARG119      0.0489
     51  CD        24.4530   16.6250   -4.5640 C.3   119  ARG119      0.2205
     52  NE        23.3010   17.2860   -5.1800 N.pl3 119  ARG119     -0.0865
     53  CZ        22.1780   17.6360   -4.5540 C.cat 119  ARG119      0.5346
     54  NH1       22.0140   17.4070   -3.2560 N.pl3 119  ARG119      0.1354
     55  NH2       21.2150   18.2420   -5.2380 N.pl3 119  ARG119      0.1354
     56  N         29.3390   13.8480   -5.5050 N.am  120  ILE120     -0.1980
     57  CA        30.5860   13.2850   -5.0010 C.3   120  ILE120      0.1595
     58  C         31.6610   13.3160   -6.0920 C.2   120  ILE120      0.2287
     59  O         32.8260   13.5990   -5.8120 O.2   120  ILE120     -0.2864
     60  CB        30.3770   11.8430   -4.4620 C.3   120  ILE120      0.0276
     61  CG1       29.5520   11.8890   -3.1700 C.3   120  ILE120      0.0022
     62  CG2       31.7210   11.1550   -4.2120 C.3   120  ILE120      0.0022
     63  CD1       29.1210   10.5300   -2.6550 C.3   120  ILE120      0.0001
     64  N         30.2850   17.9990   -2.7600 N.3   125  ARG125     -0.1245
     65  CA        30.1690   17.4300   -1.4290 C.3   125  ARG125      0.1563
     66  C         31.5430   17.4230   -0.7100 C.2   125  ARG125      0.2260
     67  O         32.5450   16.9590   -1.2620 O.2   125  ARG125     -0.2867
     68  CB        29.6120   16.0150   -1.6030 C.3   125  ARG125      0.0307
     69  CG        29.1860   15.2870   -0.3700 C.3   125  ARG125      0.0489
     70  CD        28.0140   15.9460    0.3020 C.3   125  ARG125      0.2205
     71  NE        27.6040   15.1760    1.4580 N.pl3 125  ARG125     -0.0865
     72  CZ        26.7230   15.5980    2.3530 C.cat 125  ARG125      0.5346
     73  NH1       26.1790   16.8050    2.2410 N.pl3 125  ARG125      0.1354
     74  NH2       26.4110   14.8140    3.3720 N.pl3 125  ARG125      0.1354
     75  N         30.3740    9.8510    2.5300 N.3   131  ASP131     -0.1225
     76  CA        29.0530    9.3660    2.1910 C.3   131  ASP131      0.1805
     77  C         29.0880    7.9630    1.6440 C.2   131  ASP131      0.2597
     78  O         29.8240    7.6780    0.7010 O.2   131  ASP131     -0.2718
     79  CB        28.4260   10.2640    1.1420 C.3   131  ASP131      0.1424
     80  CG        28.1440   11.6310    1.6670 C.2   131  ASP131      0.3668
     81  OD1       27.3950   11.7290    2.6610 O.co2 131  ASP131     -0.2456
     82  OD2       28.6630   12.5940    1.0720 O.co2 131  ASP131     -0.2456
     83  N         28.2930    7.0960    2.2610 N.am  132  ASP132     -0.1974
     84  CA        28.1520    5.7280    1.8250 C.3   132  ASP132      0.1709
     85  C         27.6830    5.7760    0.3710 C.2   132  ASP132      0.2293
     86  O         26.5760    6.2510    0.0860 O.2   132  ASP132     -0.2864
     87  CB        27.1420    5.0130    2.7230 C.3   132  ASP132      0.1436
     88  CG        25.8100    5.7010    2.7950 C.2   132  ASP132      0.3671
     89  OD1       25.6950    6.8710    2.4410 O.co2 132  ASP132     -0.2456
     90  OD2       24.8730    4.9530    3.2090 O.co2 132  ASP132     -0.2456
@<TRIPOS>BOND
     1    45    46    1
     2    46    47    1
     3    46    49    1
     4    58    59    2
     5    58    57    1
     6    37    38    1
     7    47    56   am
     8    47    48    2
     9    39    40    2
    10    39    38    1
    11    50    49    1
    12    50    51    1
    13    56    57    1
    14    55    53    1
    15    52    51    1
    16    52    53    2
    17    57    60    1
    18    38    41    1
    19    53    54    1
    20    60    62    1
    21    60    61    1
    22    41    43    1
    23    41    42    1
    24    11    10    2
    25    61    63    1
    26    42    44    1
    27    12     9    1
    28    64    65    1
    29    10     9    1
    30     9     8    1
    31    68    65    1
    32    68    69    1
    33    65    66    1
    34    67    66    2
    35     4     3    2
    36     8     3   am
    37    69    70    1
    38    13    14    1
    39     3     2    1
    40    86    85    2
    41    24    25    2
    42    24    23    1
    43    70    71    1
    44    85    84    1
    45    26    28    1
    46    26    23    1
    47    26    27    1
    48    78    77    2
    49    22    23    1
    50    22    15   am
    51    82    80   ar
    52    79    80    1
    53    79    76    1
    54    14    15    1
    55    14    17    1
    56    15    16    2
    57    71    72    2
    58     2     5    1
    59     2     1    1
    60    77    76    1
    61    77    83   am
    62    80    81   ar
    63    84    83    1
    64    84    87    1
    65     5     6    1
    66    76    75    1
    67    73    72    1
    68     1     7    1
    69    72    74    1
    70    89    88   ar
    71    17    18    1
    72    18    19    1
    73    87    88    1
    74    88    90   ar
    75     7     6    1
    76    19    20    1
    77    21    20    1
    78    36    34   ar
    79    34    33    1
    80    34    35   ar
    81    33    30    1
    82    32    31    2
    83    31    30    1
    84    30    29    1
