@<TRIPOS>MOLECULE
tmp/2rhsC00.pdb
 204 195 0 0 0
SMALL
GASTEIGER

@<TRIPOS>ATOM
      1  N         56.4490    2.3520   79.1500 N.3    63  PHE63      -0.1241
      2  CA        56.3090    3.3080   80.2340 C.3    63  PHE63       0.1605
      3  C         56.8400    4.6730   79.8200 C.2    63  PHE63       0.2264
      4  O         56.0700    5.6110   79.7300 O.2    63  PHE63      -0.2867
      5  CB        56.9870    2.7840   81.5100 C.3    63  PHE63       0.0534
      6  CG        56.1910    1.7230   82.1940 C.ar   63  PHE63      -0.0203
      7  CD1       54.8430    1.9130   82.4270 C.ar   63  PHE63      -0.0042
      8  CD2       56.7740    0.5430   82.5820 C.ar   63  PHE63      -0.0042
      9  CE1       54.0910    0.9350   83.0440 C.ar   63  PHE63      -0.0003
     10  CE2       56.0480   -0.4390   83.2080 C.ar   63  PHE63      -0.0003
     11  CZ        54.6970   -0.2420   83.4330 C.ar   63  PHE63      -0.0000
     12  N         55.5900    6.6190   77.1520 N.3    66  LEU66      -0.1245
     13  CA        54.1840    6.8900   77.4160 C.3    66  LEU66       0.1561
     14  C         54.0080    7.7940   78.6270 C.2    66  LEU66       0.2260
     15  O         52.9140    7.8970   79.1950 O.2    66  LEU66      -0.2867
     16  CB        53.4180    5.5750   77.5640 C.3    66  LEU66       0.0270
     17  CG        53.0030    5.0560   76.1820 C.3    66  LEU66       0.0019
     18  CD1       53.4740    3.6530   75.9890 C.3    66  LEU66       0.0001
     19  CD2       51.5090    5.0840   76.1360 C.3    66  LEU66       0.0001
     20  N         55.5420    7.8900   81.5920 N.3    68  LEU68      -0.1245
     21  CA        55.8430    7.4010   82.9370 C.3    68  LEU68       0.1561
     22  C         57.3450    7.3380   83.1920 C.2    68  LEU68       0.2260
     23  O         58.0280    6.3510   82.8770 O.2    68  LEU68      -0.2867
     24  CB        55.1860    6.0470   83.1910 C.3    68  LEU68       0.0270
     25  CG        53.7010    6.0690   83.5450 C.3    68  LEU68       0.0019
     26  CD1       52.8660    5.9150   82.2920 C.3    68  LEU68       0.0001
     27  CD2       53.4900    4.8760   84.4480 C.3    68  LEU68       0.0001
     28  N         57.4410    7.2650   88.7820 N.3    72  HIS72      -0.1241
     29  CA        56.0950    6.6920   88.8430 C.3    72  HIS72       0.1621
     30  C         55.7260    5.3880   89.5470 C.2    72  HIS72       0.2264
     31  O         56.4010    4.3690   89.3860 O.2    72  HIS72      -0.2867
     32  CB        55.4630    6.6880   87.4520 C.3    72  HIS72       0.0745
     33  CG        53.9670    6.6740   87.4840 C.ar   72  HIS72       0.0817
     34  ND1       53.2370    5.5220   87.6880 N.ar   72  HIS72      -0.2268
     35  CD2       53.0650    7.6740   87.3480 C.ar   72  HIS72       0.1154
     36  CE1       51.9470    5.8130   87.6750 C.ar   72  HIS72       0.1986
     37  NE2       51.8160    7.1130   87.4690 N.ar   72  HIS72      -0.2212
     38  N         53.6130    3.1030   88.7690 N.3    74  ALA74      -0.1245
     39  CA        52.9860    2.1220   87.8950 C.3    74  ALA74       0.1562
     40  C         54.0590    1.2980   87.1900 C.2    74  ALA74       0.2260
     41  O         53.8790    0.1060   86.9060 O.2    74  ALA74      -0.2867
     42  CB        52.0650    2.8040   86.8910 C.3    74  ALA74       0.0290
     43  N         51.8810   -3.9740   79.4390 N.3    91  THR91      -0.1203
     44  CA        50.7560   -3.8160   80.3500 C.3    91  THR91       0.1994
     45  C         49.5470   -3.2380   79.6310 C.2    91  THR91       0.2617
     46  O         48.4340   -3.1780   80.1630 O.2    91  THR91      -0.2717
     47  CB        51.1340   -3.0160   81.6050 C.3    91  THR91       0.1784
     48  OG1       51.5470   -1.6980   81.2280 O.3    91  THR91      -0.2211
     49  CG2       52.2820   -3.6810   82.3600 C.3    91  THR91       0.0376
     50  N         49.7940   -2.8360   78.3910 N.am   92  HIS92      -0.1975
     51  CA        48.7880   -2.2560   77.5210 C.3    92  HIS92       0.1656
     52  C         49.3830   -2.2980   76.1180 C.2    92  HIS92       0.2291
     53  O         50.5700   -2.6220   75.9480 O.2    92  HIS92      -0.2864
     54  CB        48.4530   -0.8160   77.9450 C.3    92  HIS92       0.0771
     55  CG        49.6510    0.0370   78.2400 C.ar   92  HIS92       0.0820
     56  ND1       49.5450    1.3110   78.7530 N.ar   92  HIS92      -0.2267
     57  CD2       50.9770   -0.1930   78.0840 C.ar   92  HIS92       0.1154
     58  CE1       50.7520    1.8300   78.8980 C.ar   92  HIS92       0.1986
     59  NE2       51.6390    0.9360   78.5030 N.ar   92  HIS92      -0.2212
     60  N         49.5500    0.3820   74.0640 N.3    94  SER94      -0.1217
     61  CA        50.2290    1.6620   73.8120 C.3    94  SER94       0.1889
     62  C         51.6470    1.6520   73.2390 C.2    94  SER94       0.2288
     63  O         51.9120    2.3950   72.2990 O.2    94  SER94      -0.2866
     64  CB        50.2720    2.5040   75.0800 C.3    94  SER94       0.2089
     65  OG        49.0350    2.5410   75.7630 O.3    94  SER94      -0.2183
     66  N         51.5510    1.5590   69.5170 N.3    97  GLN97      -0.1231
     67  CA        51.2830    2.9120   69.0390 C.3    97  GLN97       0.1698
     68  C         52.4450    3.8910   69.1760 C.2    97  GLN97       0.2592
     69  O         52.6940    4.6780   68.2850 O.2    97  GLN97      -0.2718
     70  CB        50.0260    3.4220   69.7290 C.3    97  GLN97       0.0381
     71  CG        49.0130    2.3010   69.7600 C.3    97  GLN97       0.0905
     72  CD        47.6330    2.7800   70.0720 C.2    97  GLN97       0.2608
     73  OE1       47.4490    3.6620   70.9190 O.2    97  GLN97      -0.2717
     74  NE2       46.6450    2.2090   69.3920 N.am   97  GLN97      -0.0878
     75  N         53.1480    3.8570   70.3020 N.am   98  ALA98      -0.1980
     76  CA        54.3190    4.7070   70.5500 C.3    98  ALA98       0.1597
     77  C         55.4230    4.4600   69.5170 C.2    98  ALA98       0.2287
     78  O         55.9900    5.4020   68.9610 O.2    98  ALA98      -0.2864
     79  CB        54.8450    4.4750   72.0010 C.3    98  ALA98       0.0319
     80  N         54.2300    5.5530   66.0610 N.3   101  MET101     -0.1245
     81  CA        54.2640    7.0100   66.0540 C.3   101  MET101      0.1570
     82  C         55.6670    7.4810   65.6990 C.2   101  MET101      0.2261
     83  O         55.8600    8.2760   64.7880 O.2   101  MET101     -0.2867
     84  CB        53.8880    7.5550   67.4260 C.3   101  MET101      0.0387
     85  CG        52.5470    8.2400   67.4730 C.3   101  MET101      0.0595
     86  SD        52.4360    9.3610   68.8920 S.3   101  MET101     -0.1393
     87  CE        52.6090    8.1960   70.2360 C.3   101  MET101      0.0692
     88  N         43.2620   -6.0550   75.1470 N.3   134  GLN134     -0.1245
     89  CA        42.9600   -4.6280   75.0850 C.3   134  GLN134      0.1566
     90  C         42.8350   -4.2140   73.6300 C.2   134  GLN134      0.2260
     91  O         43.5030   -4.7720   72.7890 O.2   134  GLN134     -0.2867
     92  CB        44.1150   -3.8360   75.6800 C.3   134  GLN134      0.0367
     93  CG        43.6610   -2.5970   76.3830 C.3   134  GLN134      0.0905
     94  CD        44.7540   -1.5600   76.4780 C.2   134  GLN134      0.2608
     95  OE1       45.8930   -1.8090   76.0850 O.2   134  GLN134     -0.2717
     96  NE2       44.4130   -0.3880   77.0000 N.am  134  GLN134     -0.0878
     97  N         43.6500   -0.6410   71.9340 N.3   136  GLU136     -0.1245
     98  CA        43.8920    0.7920   71.9030 C.3   136  GLU136      0.1567
     99  C         43.6850    1.4100   70.5240 C.2   136  GLU136      0.2260
    100  O         43.7610    0.7480   69.4900 O.2   136  GLU136     -0.2867
    101  CB        45.2910    1.0840   72.4600 C.3   136  GLU136      0.0388
    102  CG        45.4250    0.6030   73.8920 C.3   136  GLU136      0.1160
    103  CD        46.4140    1.4050   74.6990 C.2   136  GLU136      0.3649
    104  OE1       47.1270    2.2470   74.1100 O.co2 136  GLU136     -0.2457
    105  OE2       46.4700    1.1810   75.9260 O.co2 136  GLU136     -0.2457
    106  N         45.0540    5.2120   68.4670 N.3   138  LEU138     -0.1245
    107  CA        45.7770    6.4680   68.4580 C.3   138  LEU138      0.1561
    108  C         45.4680    7.1640   67.1300 C.2   138  LEU138      0.2260
    109  O         45.6180    6.5940   66.0430 O.2   138  LEU138     -0.2867
    110  CB        47.2820    6.2340   68.6050 C.3   138  LEU138      0.0270
    111  CG        48.1470    7.4690   68.3840 C.3   138  LEU138      0.0019
    112  CD1       47.9550    8.4380   69.5170 C.3   138  LEU138      0.0001
    113  CD2       49.5740    7.0570   68.3590 C.3   138  LEU138      0.0001
    114  N         42.3080   10.9230   85.1150 N.3   173  TYR173     -0.1227
    115  CA        43.7110   11.2740   84.8490 C.3   173  TYR173      0.1736
    116  C         44.4430   10.0310   84.4220 C.2   173  TYR173      0.2595
    117  O         44.3600    9.0270   85.1130 O.2   173  TYR173     -0.2718
    118  CB        44.4750   11.7030   86.1060 C.3   173  TYR173      0.0548
    119  CG        45.9890   11.4510   86.0770 C.ar  173  TYR173     -0.0200
    120  CD1       46.5430   10.2200   86.4550 C.ar  173  TYR173     -0.0009
    121  CD2       46.8730   12.4550   85.6710 C.ar  173  TYR173     -0.0009
    122  CE1       47.9320    9.9920   86.4330 C.ar  173  TYR173      0.0417
    123  CE2       48.2460   12.2420   85.6550 C.ar  173  TYR173      0.0417
    124  CZ        48.7710   11.0180   86.0400 C.ar  173  TYR173      0.1957
    125  OH        50.1400   10.8500   86.0110 O.3   173  TYR173     -0.2866
    126  N         45.1800   10.1110   83.3170 N.am  174  PHE174     -0.1963
    127  CA        46.1590    9.0940   82.9670 C.3   174  PHE174      0.1756
    128  C         47.4310    9.8490   82.6450 C.2   174  PHE174      0.2461
    129  O         47.4020   11.0370   82.3260 O.2   174  PHE174     -0.2730
    130  CB        45.6920    8.3190   81.7310 C.3   174  PHE174      0.0574
    131  CG        44.2480    7.9080   81.7910 C.ar  174  PHE174     -0.0200
    132  CD1       43.8510    6.8510   82.6020 C.ar  174  PHE174     -0.0042
    133  CD2       43.2900    8.5800   81.0550 C.ar  174  PHE174     -0.0042
    134  CE1       42.5230    6.4750   82.6750 C.ar  174  PHE174     -0.0003
    135  CE2       41.9590    8.1990   81.1200 C.ar  174  PHE174     -0.0003
    136  CZ        41.5760    7.1500   81.9300 C.ar  174  PHE174     -0.0000
    137  N         48.5780    9.1780   82.7390 N.am  175  PRO175     -0.2716
    138  CA        49.7650   10.0070   82.5320 C.3   175  PRO175      0.1536
    139  C         50.0250   10.4000   81.0730 C.2   175  PRO175      0.2599
    140  O         50.6670   11.4210   80.8210 O.2   175  PRO175     -0.2715
    141  CB        50.9140    9.1530   83.0910 C.3   175  PRO175      0.0310
    142  CG        50.3060    7.8590   83.5290 C.3   175  PRO175      0.0237
    143  CD        48.8940    7.7740   83.0420 C.3   175  PRO175      0.0939
    144  N         49.5530    9.5930   80.1240 N.am  176  PHE176     -0.1960
    145  CA        49.8720    9.7820   78.7070 C.3   176  PHE176      0.1771
    146  C         48.9260   10.7560   77.9860 C.2   176  PHE176      0.2620
    147  O         49.1650   11.1310   76.8460 O.2   176  PHE176     -0.2715
    148  CB        49.9250    8.4200   77.9860 C.3   176  PHE176      0.0574
    149  CG        49.2120    7.3260   78.7140 C.ar  176  PHE176     -0.0200
    150  CD1       49.8690    6.5590   79.6620 C.ar  176  PHE176     -0.0042
    151  CD2       47.8760    7.0790   78.4810 C.ar  176  PHE176     -0.0042
    152  CE1       49.2050    5.5490   80.3610 C.ar  176  PHE176     -0.0003
    153  CE2       47.2020    6.0770   79.1710 C.ar  176  PHE176     -0.0003
    154  CZ        47.8660    5.3040   80.1070 C.ar  176  PHE176     -0.0000
    155  N         47.8450   11.1560   78.6450 N.am  177  THR177     -0.1951
    156  CA        46.7690   11.9160   78.0310 C.3   177  THR177      0.1897
    157  C         46.3600   13.0720   78.9290 C.2   177  THR177      0.2313
    158  O         46.6540   13.0950   80.1320 O.2   177  THR177     -0.2863
    159  CB        45.4720   11.0950   77.8620 C.3   177  THR177      0.1794
    160  OG1       45.0330   10.6660   79.1520 O.3   177  THR177     -0.2208
    161  CG2       45.6620    9.8870   76.9330 C.3   177  THR177      0.0378
    162  N         38.4660    4.0610   78.5970 N.3   208  GLY208     -0.1210
    163  CA        39.1810    5.3150   78.8250 C.3   208  GLY208      0.1956
    164  C         39.8130    5.9840   77.6140 C.2   208  GLY208      0.2611
    165  O         40.2530    5.3240   76.6710 O.2   208  GLY208     -0.2717
    166  N         39.8760    7.3110   77.6440 N.am  209  ALA209     -0.1979
    167  CA        40.3480    8.0550   76.4890 C.3   209  ALA209      0.1597
    168  C         40.9740    9.3650   76.9370 C.2   209  ALA209      0.2287
    169  O         40.8960    9.7090   78.1140 O.2   209  ALA209     -0.2864
    170  CB        39.2010    8.3090   75.5370 C.3   209  ALA209      0.0319
    171  N         46.2540   13.1350   73.5730 N.3   212  VAL212     -0.1245
    172  CA        47.5880   12.6770   73.9080 C.3   212  VAL212      0.1561
    173  C         48.3560   13.8530   74.4870 C.2   212  VAL212      0.2260
    174  O         48.1590   15.0020   74.0760 O.2   212  VAL212     -0.2867
    175  CB        48.3270   12.1080   72.7020 C.3   212  VAL212      0.0252
    176  CG1       49.7490   11.7110   73.0700 C.3   212  VAL212      0.0019
    177  CG2       47.5300   10.9360   72.1370 C.3   212  VAL212      0.0019
    178  N         54.4610   12.8950   75.1260 N.3   216  VAL216     -0.1245
    179  CA        54.3350   11.6700   74.3550 C.3   216  VAL216      0.1561
    180  C         54.5140   11.9430   72.8530 C.2   216  VAL216      0.2260
    181  O         55.1980   11.2080   72.1380 O.2   216  VAL216     -0.2867
    182  CB        52.9470   11.0520   74.6610 C.3   216  VAL216      0.0252
    183  CG1       52.6310    9.9410   73.7110 C.3   216  VAL216      0.0019
    184  CG2       52.9120   10.5750   76.1050 C.3   216  VAL216      0.0019
    185  N         43.7210    9.3180   72.1400 N.3   231  ALA231     -0.1231
    186  CA        44.0030    7.9010   72.2450 C.3   231  ALA231      0.1694
    187  C         42.8890    7.4030   73.1300 C.2   231  ALA231      0.2592
    188  O         42.1750    8.2150   73.7050 O.2   231  ALA231     -0.2718
    189  CB        45.3780    7.6350   72.8300 C.3   231  ALA231      0.0304
    190  N         42.7160    6.0880   73.1800 N.am  232  PHE232     -0.1962
    191  CA        41.6540    5.4660   73.9330 C.3   232  PHE232      0.1771
    192  C         42.0240    3.9950   74.0840 C.2   232  PHE232      0.2620
    193  O         42.9180    3.5110   73.3790 O.2   232  PHE232     -0.2715
    194  CB        40.3030    5.6490   73.2650 C.3   232  PHE232      0.0574
    195  CG        40.2400    5.1160   71.8450 C.ar  232  PHE232     -0.0200
    196  CD1       39.8030    3.8070   71.5810 C.ar  232  PHE232     -0.0042
    197  CD2       40.6210    5.9210   70.7850 C.ar  232  PHE232     -0.0042
    198  CE1       39.7450    3.3210   70.2700 C.ar  232  PHE232     -0.0003
    199  CE2       40.5720    5.4340   69.4710 C.ar  232  PHE232     -0.0003
    200  CZ        40.1370    4.1320   69.2180 C.ar  232  PHE232     -0.0000
    201  N         41.3670    3.3020   75.0160 N.am  233  GLY233     -0.1954
    202  CA        41.5930    1.8650   75.2230 C.3   233  GLY233      0.1869
    203  C         40.2840    1.1990   75.6100 C.2   233  GLY233      0.2309
    204  O         39.3690    1.8490   76.1100 O.2   233  GLY233     -0.2863
@<TRIPOS>BOND
     1    83    82    2
     2    82    81    1
     3   109   108    2
     4    81    80    1
     5    81    84    1
     6   108   107    1
     7    84    85    1
     8    85    86    1
     9    69    68    2
    10   113   111    1
    11   111   110    1
    12   111   112    1
    13   107   106    1
    14   107   110    1
    15    86    87    1
    16    78    77    2
    17    67    68    1
    18    67    66    1
    19    67    70    1
    20    68    75   am
    21   200   199   ar
    22   200   198   ar
    23    74    72   am
    24   199   197   ar
    25   100    99    2
    26    77    76    1
    27    70    71    1
    28    71    72    1
    29    72    73    2
    30   198   196   ar
    31    75    76    1
    32    99    98    1
    33    76    79    1
    34   197   195   ar
    35   196   195   ar
    36   195   194    1
    37    98    97    1
    38    98   101    1
    39   177   175    1
    40   181   180    2
    41   185   186    1
    42   186   189    1
    43   186   187    1
    44    63    62    2
    45   101   102    1
    46   175   176    1
    47   175   172    1
    48    91    90    2
    49   180   179    1
    50   187   190   am
    51   187   188    2
    52   190   191    1
    53    62    61    1
    54   194   191    1
    55   193   192    2
    56   171   172    1
    57    90    89    1
    58   183   182    1
    59    61    60    1
    60    61    64    1
    61   102   103    1
    62   172   173    1
    63   191   192    1
    64   174   173    2
    65   192   201   am
    66   104   103   ar
    67   179   182    1
    68   179   178    1
    69   182   184    1
    70   103   105   ar
    71   201   202    1
    72    64    65    1
    73    89    88    1
    74    89    92    1
    75   202   203    1
    76   170   167    1
    77   203   204    2
    78    92    93    1
    79    53    52    2
    80    18    17    1
    81    95    94    2
    82    52    51    1
    83    19    17    1
    84    17    16    1
    85    93    94    1
    86    94    96   am
    87   167   168    1
    88   167   166    1
    89   165   164    2
    90   147   146    2
    91   161   159    1
    92   168   169    2
    93    12    13    1
    94    13    16    1
    95    13    14    1
    96    51    54    1
    97    51    50    1
    98   164   166   am
    99   164   163    1
   100   159   156    1
   101   159   160    1
   102    54    55    1
   103   148   145    1
   104   148   149    1
   105   146   155   am
   106   146   145    1
   107   156   155    1
   108   156   157    1
   109    57    55   ar
   110    57    59   ar
   111    55    56   ar
   112    50    45   am
   113   151   149   ar
   114   151   153   ar
   115    59    58   ar
   116   162   163    1
   117    14    15    2
   118   145   144    1
   119   149   150   ar
   120    56    58   ar
   121   157   158    2
   122     1     2    1
   123   153   154   ar
   124    43    44    1
   125    45    46    2
   126    45    44    1
   127   150   152   ar
   128     4     3    2
   129     3     2    1
   130   154   152   ar
   131   144   139   am
   132     2     5    1
   133    44    47    1
   134   140   139    2
   135   133   135   ar
   136   133   131   ar
   137   139   138    1
   138   135   136   ar
   139    48    47    1
   140     5     6    1
   141    20    21    1
   142    47    49    1
   143   130   131    1
   144   130   127    1
   145   131   132   ar
   146   136   134   ar
   147     6     7   ar
   148     6     8   ar
   149    26    25    1
   150   129   128    2
   151     7     9   ar
   152   138   137    1
   153   138   141    1
   154     8    10   ar
   155   132   134   ar
   156   128   137   am
   157   128   127    1
   158   137   143    1
   159    23    22    2
   160    21    24    1
   161    21    22    1
   162   127   126    1
   163   143   142    1
   164     9    11   ar
   165   141   142    1
   166    24    25    1
   167    10    11   ar
   168   126   116   am
   169    25    27    1
   170   116   115    1
   171   116   117    2
   172   115   114    1
   173   115   118    1
   174   123   121   ar
   175   123   124   ar
   176   121   119   ar
   177   125   124    1
   178   124   122   ar
   179   119   118    1
   180   119   120   ar
   181   122   120   ar
   182    42    39    1
   183    41    40    2
   184    40    39    1
   185    35    37   ar
   186    35    33   ar
   187    32    33    1
   188    32    29    1
   189    37    36   ar
   190    33    34   ar
   191    36    34   ar
   192    39    38    1
   193    28    29    1
   194    29    30    1
   195    31    30    2
