@<TRIPOS>MOLECULE
tmp/2rhwA02.pdb
 153 147 0 0 0
SMALL
GASTEIGER

@<TRIPOS>ATOM
      1  N         -2.8810   19.7640  -17.3770 N.3    38  GLY38      -0.1210
      2  CA        -1.9000   18.7000  -17.5130 C.3    38  GLY38       0.1956
      3  C         -1.0070   18.8570  -18.7310 C.2    38  GLY38       0.2612
      4  O         -1.1650   19.7990  -19.5440 O.2    38  GLY38      -0.2717
      5  N         -0.0650   17.9330  -18.8720 N.am   39  GLY39      -0.1942
      6  CA         0.9990   18.0860  -19.8580 C.3    39  GLY39       0.2014
      7  C          0.8600   17.2860  -21.1350 C.2    39  GLY39       0.2639
      8  O          1.8320   17.1540  -21.8720 O.2    39  GLY39      -0.2714
      9  N         -0.3230   16.7460  -21.4100 N.am   40  GLY40      -0.1954
     10  CA        -0.4970   15.9350  -22.6130 C.3    40  GLY40       0.1869
     11  C         -0.4910   16.7710  -23.8870 C.2    40  GLY40       0.2309
     12  O         -0.7680   17.9640  -23.8440 O.2    40  GLY40      -0.2863
     13  N         -2.9360   19.8260  -24.7700 N.3    43  ALA43      -0.1245
     14  CA        -3.5920   20.3180  -23.5550 C.3    43  ALA43       0.1562
     15  C         -3.6810   21.8430  -23.4960 C.2    43  ALA43       0.2260
     16  O         -2.8640   22.5490  -24.0710 O.2    43  ALA43      -0.2867
     17  CB        -2.8900   19.7740  -22.3100 C.3    43  ALA43       0.0290
     18  N         -9.2660   21.6660  -20.8610 N.3    48  ASN48      -0.1240
     19  CA        -9.1830   20.8320  -19.6700 C.3    48  ASN48       0.1653
     20  C        -10.2160   21.1430  -18.5900 C.2    48  ASN48       0.2266
     21  O        -10.5560   20.2540  -17.7950 O.2    48  ASN48      -0.2867
     22  CB        -7.7630   20.8740  -19.1160 C.3    48  ASN48       0.1155
     23  CG        -6.7820   20.0910  -19.9970 C.2    48  ASN48       0.2627
     24  OD1       -5.9810   19.3170  -19.4900 O.2    48  ASN48      -0.2716
     25  ND2       -6.8770   20.2670  -21.3230 N.am   48  ASN48      -0.0877
     26  N         -4.0730   19.9570  -12.1460 N.3   108  ASN108     -0.1225
     27  CA        -4.1120   18.5500  -12.5040 C.3   108  ASN108      0.1785
     28  C         -2.7800   18.1270  -13.1280 C.2   108  ASN108      0.2597
     29  O         -2.2980   18.7700  -14.0710 O.2   108  ASN108     -0.2718
     30  CB        -5.2620   18.3290  -13.4950 C.3   108  ASN108      0.1169
     31  CG        -5.4740   16.8760  -13.8400 C.2   108  ASN108      0.2627
     32  OD1       -6.5930   16.3580  -13.7460 O.2   108  ASN108     -0.2716
     33  ND2       -4.4150   16.2170  -14.2890 N.am  108  ASN108     -0.0877
     34  N         -2.1920   17.0500  -12.6060 N.am  109  ALA109     -0.1966
     35  CA        -0.9980   16.4310  -13.1980 C.3   109  ALA109      0.1728
     36  C          0.1570   17.4280  -13.3070 C.2   109  ALA109      0.2616
     37  O          0.6260   17.9130  -12.2670 O.2   109  ALA109     -0.2715
     38  CB        -1.3300   15.8180  -14.5260 C.3   109  ALA109      0.0334
     39  N          0.6320   17.7510  -14.5220 N.am  110  MET110     -0.1977
     40  CA         1.6480   18.8170  -14.6180 C.3   110  MET110      0.1605
     41  C          1.2250   20.0780  -13.8750 C.2   110  MET110      0.2287
     42  O          2.0380   20.7570  -13.2320 O.2   110  MET110     -0.2864
     43  CB         1.9280   19.1850  -16.0720 C.3   110  MET110      0.0413
     44  CG         2.9380   20.3080  -16.2230 C.3   110  MET110      0.0598
     45  SD         3.2720   20.7120  -17.9490 S.3   110  MET110     -0.1393
     46  CE         1.8080   21.6760  -18.3890 C.3   110  MET110      0.0692
     47  N          1.7560   15.3390  -10.8850 N.3   135  GLY135     -0.1210
     48  CA         2.8260   14.4980  -11.4390 C.3   135  GLY135      0.1956
     49  C          4.2000   14.7940  -10.8690 C.2   135  GLY135      0.2612
     50  O          4.4100   15.8260  -10.2350 O.2   135  GLY135     -0.2717
     51  N          5.1280   13.8540  -11.0760 N.am  136  GLY136     -0.1956
     52  CA         6.5460   14.0990  -10.7810 C.3   136  GLY136      0.1869
     53  C          6.9990   13.9190   -9.3410 C.2   136  GLY136      0.2309
     54  O          8.0900   14.3730   -8.9880 O.2   136  GLY136     -0.2863
     55  N          1.9410    7.4140  -19.1800 N.3   150  ILE150     -0.1245
     56  CA         3.0870    8.2390  -19.5110 C.3   150  ILE150      0.1561
     57  C          3.7960    7.7270  -20.7690 C.2   150  ILE150      0.2260
     58  O          4.2160    8.5250  -21.6310 O.2   150  ILE150     -0.2867
     59  CB         4.0460    8.3320  -18.3070 C.3   150  ILE150      0.0252
     60  CG1        3.3610    9.0210  -17.1220 C.3   150  ILE150      0.0019
     61  CG2        5.3860    8.9760  -18.7010 C.3   150  ILE150      0.0019
     62  CD1        2.6380   10.2940  -17.4710 C.3   150  ILE150      0.0001
     63  N          1.7320    8.9890  -23.5850 N.3   153  LEU153     -0.1245
     64  CA         1.9170   10.4270  -23.7620 C.3   153  LEU153      0.1561
     65  C          3.2020   10.6770  -24.5710 C.2   153  LEU153      0.2260
     66  O          3.2240   11.5100  -25.4820 O.2   153  LEU153     -0.2867
     67  CB         1.9650   11.1190  -22.3950 C.3   153  LEU153      0.0270
     68  CG         2.3170   12.6000  -22.2560 C.3   153  LEU153      0.0019
     69  CD1        1.6040   13.2010  -21.0550 C.3   153  LEU153      0.0001
     70  CD2        3.8300   12.8040  -22.1490 C.3   153  LEU153      0.0001
     71  N         -4.5360    6.8090  -26.4490 N.3   168  MET168     -0.1245
     72  CA        -4.1910    7.5240  -25.2270 C.3   168  MET168      0.1570
     73  C         -5.4650    7.8890  -24.4460 C.2   168  MET168      0.2261
     74  O         -5.5390    7.7060  -23.2360 O.2   168  MET168     -0.2867
     75  CB        -3.3530    8.7630  -25.5630 C.3   168  MET168      0.0387
     76  CG        -2.8350    9.5110  -24.3590 C.3   168  MET168      0.0595
     77  SD        -4.0910   10.6170  -23.7170 S.3   168  MET168     -0.1393
     78  CE        -3.9570   11.9920  -24.8610 C.3   168  MET168      0.0692
     79  N         -6.6290    7.2740  -20.6740 N.3   172  PHE172     -0.1241
     80  CA        -6.8030    8.5100  -19.8990 C.3   172  PHE172      0.1605
     81  C         -8.1330    8.5230  -19.1270 C.2   172  PHE172      0.2264
     82  O         -8.1950    9.0200  -17.9900 O.2   172  PHE172     -0.2867
     83  CB        -6.7000    9.6720  -20.9180 C.3   172  PHE172      0.0534
     84  CG        -6.5930   11.0590  -20.3310 C.ar  172  PHE172     -0.0203
     85  CD1       -5.5640   11.4200  -19.4760 C.ar  172  PHE172     -0.0042
     86  CD2       -7.5090   12.0430  -20.7270 C.ar  172  PHE172     -0.0042
     87  CE1       -5.4830   12.7310  -18.9810 C.ar  172  PHE172     -0.0003
     88  CE2       -7.4320   13.3440  -20.2400 C.ar  172  PHE172     -0.0003
     89  CZ        -6.4280   13.6870  -19.3610 C.ar  172  PHE172     -0.0000
     90  N         11.6320   13.5750  -15.6410 N.3   210  LEU210     -0.1245
     91  CA        10.6220   13.5830  -14.5800 C.3   210  LEU210      0.1561
     92  C         11.2260   13.4700  -13.1770 C.2   210  LEU210      0.2260
     93  O         10.6730   14.0060  -12.2210 O.2   210  LEU210     -0.2867
     94  CB         9.5960   12.4740  -14.8190 C.3   210  LEU210      0.0270
     95  CG         8.2050   12.5840  -14.2010 C.3   210  LEU210      0.0019
     96  CD1        7.5410   13.9310  -14.5110 C.3   210  LEU210      0.0001
     97  CD2        7.3500   11.4300  -14.7160 C.3   210  LEU210      0.0001
     98  N         11.6430   16.6650  -11.1890 N.3   213  TRP213     -0.1241
     99  CA        10.4410   17.3480  -10.7250 C.3   213  TRP213      0.1605
    100  C         10.1360   17.0860   -9.2530 C.2   213  TRP213      0.2264
    101  O          9.2650   17.7350   -8.6830 O.2   213  TRP213     -0.2867
    102  CB         9.2150   16.8650  -11.4980 C.3   213  TRP213      0.0550
    103  CG         9.0770   17.2250  -12.9360 C.ar  213  TRP213      0.0003
    104  CD1       10.0580   17.2910  -13.8900 C.ar  213  TRP213      0.0946
    105  CD2        7.8430   17.4620  -13.6110 C.ar  213  TRP213      0.0152
    106  NE1        9.5000   17.6020  -15.1150 N.ar  213  TRP213     -0.2442
    107  CE2        8.1430   17.7060  -14.9690 C.ar  213  TRP213      0.0810
    108  CE3        6.5080   17.5070  -13.1940 C.ar  213  TRP213      0.0012
    109  CZ2        7.1560   17.9890  -15.9120 C.ar  213  TRP213      0.0191
    110  CZ3        5.5270   17.7850  -14.1340 C.ar  213  TRP213      0.0001
    111  CH2        5.8570   18.0230  -15.4730 C.ar  213  TRP213      0.0015
    112  N         -1.8990    7.1390  -15.1050 N.3   236  PHE236     -0.1227
    113  CA        -0.8710    8.1350  -15.4300 C.3   236  PHE236      0.1736
    114  C         -0.0350    8.5710  -14.2300 C.2   236  PHE236      0.2595
    115  O          1.1680    8.8220  -14.3670 O.2   236  PHE236     -0.2718
    116  CB        -1.5110    9.3840  -16.0760 C.3   236  PHE236      0.0547
    117  CG        -2.0150    9.1680  -17.4700 C.ar  236  PHE236     -0.0202
    118  CD1       -1.3750    9.7850  -18.5400 C.ar  236  PHE236     -0.0042
    119  CD2       -3.1020    8.3310  -17.7200 C.ar  236  PHE236     -0.0042
    120  CE1       -1.8430    9.5900  -19.8510 C.ar  236  PHE236     -0.0003
    121  CE2       -3.5470    8.1140  -19.0190 C.ar  236  PHE236     -0.0003
    122  CZ        -2.9030    8.7470  -20.0760 C.ar  236  PHE236     -0.0000
    123  N         -0.6780    8.7150  -13.0720 N.am  237  VAL237     -0.1980
    124  CA         0.0230    9.0490  -11.8410 C.3   237  VAL237      0.1595
    125  C         -0.5130    8.1490  -10.7400 C.2   237  VAL237      0.2287
    126  O         -1.7110    7.8970  -10.6540 O.2   237  VAL237     -0.2864
    127  CB        -0.1160   10.5300  -11.4580 C.3   237  VAL237      0.0276
    128  CG1        0.6120   11.4140  -12.4590 C.3   237  VAL237      0.0022
    129  CG2       -1.5630   10.9300  -11.3670 C.3   237  VAL237      0.0022
    130  N         -7.5710    9.8350  -15.2580 N.3   262  HIS262     -0.1226
    131  CA        -6.6190   10.9630  -15.0730 C.3   262  HIS262      0.1752
    132  C         -7.2190   12.3640  -15.3100 C.2   262  HIS262      0.2596
    133  O         -6.4890   13.3720  -15.2770 O.2   262  HIS262     -0.2718
    134  CB        -5.4410   10.7650  -16.0460 C.3   262  HIS262      0.0759
    135  CG        -4.2150   11.5810  -15.7360 C.ar  262  HIS262      0.0818
    136  ND1       -3.6660   11.6520  -14.4740 N.ar  262  HIS262     -0.2268
    137  CD2       -3.3870   12.2910  -16.5440 C.ar  262  HIS262      0.1154
    138  CE1       -2.5810   12.4070  -14.5070 C.ar  262  HIS262      0.1986
    139  NE2       -2.3880   12.8050  -15.7520 N.ar  262  HIS262     -0.2212
    140  N         -8.5440   12.4490  -15.4760 N.am  263  TRP263     -0.1976
    141  CA        -9.1840   13.7490  -15.7680 C.3   263  TRP263      0.1640
    142  C        -10.3950   13.8910  -14.8540 C.2   263  TRP263      0.2290
    143  O        -11.5240   14.0970  -15.3220 O.2   263  TRP263     -0.2864
    144  CB        -9.5530   13.8170  -17.2540 C.3   263  TRP263      0.0576
    145  CG        -9.8190   15.1980  -17.8690 C.ar  263  TRP263      0.0006
    146  CD1       -9.5650   16.4300  -17.3130 C.ar  263  TRP263      0.0946
    147  CD2      -10.3590   15.4600  -19.1800 C.ar  263  TRP263      0.0152
    148  NE1       -9.9300   17.4360  -18.1950 N.ar  263  TRP263     -0.2442
    149  CE2      -10.4290   16.8640  -19.3380 C.ar  263  TRP263      0.0810
    150  CE3      -10.8150   14.6390  -20.2230 C.ar  263  TRP263      0.0012
    151  CZ2      -10.9200   17.4650  -20.5030 C.ar  263  TRP263      0.0191
    152  CZ3      -11.3160   15.2410  -21.3840 C.ar  263  TRP263      0.0001
    153  CH2      -11.3620   16.6400  -21.5100 C.ar  263  TRP263      0.0015
@<TRIPOS>BOND
     1    71    72    1
     2    75    72    1
     3    75    76    1
     4    66    65    2
     5    72    73    1
     6    78    77    1
     7    13    14    1
     8    65    64    1
     9    73    74    2
    10    76    77    1
    11    16    15    2
    12    11    12    2
    13    11    10    1
    14    64    63    1
    15    64    67    1
    16    14    15    1
    17    14    17    1
    18    10     9    1
    19    67    68    1
    20    68    70    1
    21    68    69    1
    22     8     7    2
    23    58    57    2
    24   153   152   ar
    25   153   151   ar
    26     9     7   am
    27   152   150   ar
    28    25    23   am
    29     7     6    1
    30    83    84    1
    31    83    80    1
    32    18    19    1
    33    57    56    1
    34    86    84   ar
    35    86    88   ar
    36    79    80    1
    37   151   149   ar
    38    84    85   ar
    39    88    89   ar
    40   150   147   ar
    41   122   120   ar
    42   122   121   ar
    43    23    24    2
    44    23    22    1
    45    80    81    1
    46     6     5    1
    47   120   118   ar
    48    19    22    1
    49    19    20    1
    50     4     3    2
    51    56    55    1
    52    56    59    1
    53    85    87   ar
    54    89    87   ar
    55   149   147   ar
    56   149   148   ar
    57   147   145   ar
    58    81    82    2
    59   121   119   ar
    60     5     3   am
    61     3     2    1
    62    61    59    1
    63    20    21    2
    64   118   117   ar
    65    46    45    1
    66    59    60    1
    67   148   146   ar
    68    45    44    1
    69   145   146   ar
    70   145   144    1
    71   119   117   ar
    72     2     1    1
    73    62    60    1
    74   117   116    1
    75   144   141    1
    76   137   139   ar
    77   137   135   ar
    78    44    43    1
    79   116   113    1
    80    43    40    1
    81   134   135    1
    82   134   131    1
    83   109   111   ar
    84   109   107   ar
    85   141   140    1
    86   141   142    1
    87   139   138   ar
    88   135   136   ar
    89    90    91    1
    90   140   132   am
    91   111   110   ar
    92   113   112    1
    93   113   114    1
    94   143   142    2
    95   132   133    2
    96   132   131    1
    97   130   131    1
    98   106   107   ar
    99   106   104   ar
   100   107   105   ar
   101    94    91    1
   102    94    95    1
   103    97    95    1
   104    40    39    1
   105    40    41    1
   106    91    92    1
   107    38    35    1
   108    39    36   am
   109    96    95    1
   110   138   136   ar
   111   115   114    2
   112    33    31   am
   113   114   123   am
   114   110   108   ar
   115    29    28    2
   116   104   103   ar
   117    41    42    2
   118    31    32    2
   119    31    30    1
   120   105   108   ar
   121   105   103   ar
   122    30    27    1
   123    36    35    1
   124    36    37    2
   125    35    34    1
   126    92    93    2
   127    28    34   am
   128    28    27    1
   129   123   124    1
   130   103   102    1
   131    27    26    1
   132   128   127    1
   133   124   127    1
   134   124   125    1
   135   102    99    1
   136   127   129    1
   137    48    47    1
   138    48    49    1
   139    98    99    1
   140    51    49   am
   141    51    52    1
   142    49    50    2
   143    52    53    1
   144   125   126    2
   145    99   100    1
   146    53    54    2
   147   100   101    2
