@<TRIPOS>MOLECULE
tmp/2rhxA02.pdb
 80 79 0 0 0
SMALL
GASTEIGER

@<TRIPOS>ATOM
      1  N          6.2230   26.8260  -11.9860 N.3    29  THR29      -0.1203
      2  CA         6.5920   26.3230  -10.6700 C.3    29  THR29       0.1994
      3  C          6.4240   27.3180   -9.5250 C.2    29  THR29       0.2618
      4  O          6.5820   26.9490   -8.3580 O.2    29  THR29      -0.2717
      5  CB         8.0660   25.8430  -10.6590 C.3    29  THR29       0.1784
      6  OG1        8.9320   26.9390  -10.9870 O.3    29  THR29      -0.2211
      7  CG2        8.2730   24.7380  -11.6760 C.3    29  THR29       0.0376
      8  N          6.0890   28.5670   -9.8360 N.am   30  HIS30      -0.1961
      9  CA         5.9550   29.5680   -8.7810 C.3    30  HIS30       0.1787
     10  C          4.5650   29.8270   -8.2010 C.2    30  HIS30       0.2620
     11  O          4.3790   30.7970   -7.4640 O.2    30  HIS30      -0.2715
     12  CB         6.5850   30.8890   -9.2360 C.3    30  HIS30       0.0785
     13  CG         5.9570   31.4770  -10.4610 C.ar   30  HIS30       0.0821
     14  ND1        6.6340   32.3360  -11.2990 N.ar   30  HIS30      -0.2267
     15  CD2        4.7110   31.3530  -10.9750 C.ar   30  HIS30       0.1154
     16  CE1        5.8320   32.7180  -12.2770 C.ar   30  HIS30       0.1986
     17  NE2        4.6590   32.1360  -12.1030 N.ar   30  HIS30      -0.2212
     18  N          3.5910   28.9760   -8.5220 N.am   31  ASN31      -0.1958
     19  CA         2.2500   29.1390   -7.9610 C.3    31  ASN31       0.1819
     20  C          2.1820   28.3470   -6.6640 C.2    31  ASN31       0.2621
     21  O          2.7810   27.2780   -6.5530 O.2    31  ASN31      -0.2715
     22  CB         1.1650   28.6070   -8.9000 C.3    31  ASN31       0.1195
     23  CG         1.1020   29.3560  -10.2080 C.2    31  ASN31       0.2630
     24  OD1        1.4250   30.5430  -10.2750 O.2    31  ASN31      -0.2716
     25  ND2        0.6640   28.6710  -11.2590 N.am   31  ASN31      -0.0877
     26  N          1.4550   28.8680   -5.6840 N.am   32  LYS32      -0.1963
     27  CA         1.3090   28.1790   -4.4100 C.3    32  LYS32       0.1728
     28  C          0.1910   27.1450   -4.5090 C.2    32  LYS32       0.2616
     29  O         -0.7910   27.3480   -5.2210 O.2    32  LYS32      -0.2715
     30  CB         0.9710   29.1760   -3.2990 C.3    32  LYS32       0.0311
     31  CG         2.0330   30.2360   -3.0630 C.3    32  LYS32       0.0038
     32  CD         1.6590   31.1640   -1.9120 C.3    32  LYS32       0.0206
     33  CE         2.7290   32.2370   -1.7070 C.3    32  LYS32       0.1093
     34  NZ         2.4300   33.1500   -0.5610 N.3    32  LYS32      -0.1314
     35  N          0.3470   26.0310   -3.8030 N.am   33  ASN33      -0.1972
     36  CA        -0.6830   25.0000   -3.7990 C.3    33  ASN33       0.1688
     37  C         -1.5160   25.2700   -2.5600 C.2    33  ASN33       0.2292
     38  O         -1.1320   24.8890   -1.4540 O.2    33  ASN33      -0.2864
     39  CB        -0.0690   23.6060   -3.7020 C.3    33  ASN33       0.1181
     40  CG        -1.1170   22.5150   -3.7310 C.2    33  ASN33       0.2629
     41  OD1       -2.3030   22.7740   -3.5110 O.2    33  ASN33      -0.2716
     42  ND2       -0.6890   21.2870   -3.9960 N.am   33  ASN33      -0.0877
     43  N          3.2020   20.6270   -5.7150 N.3    63  TYR63      -0.1241
     44  CA         2.1260   21.2700   -6.4560 C.3    63  TYR63       0.1605
     45  C          1.0690   20.2540   -6.9130 C.2    63  TYR63       0.2264
     46  O          0.2850   20.5230   -7.8240 O.2    63  TYR63      -0.2867
     47  CB         2.7160   22.0010   -7.6610 C.3    63  TYR63       0.0534
     48  CG         1.8020   23.0310   -8.2790 C.ar   63  TYR63      -0.0201
     49  CD1        1.2870   24.0860   -7.5210 C.ar   63  TYR63      -0.0009
     50  CD2        1.4770   22.9690   -9.6300 C.ar   63  TYR63      -0.0009
     51  CE1        0.4720   25.0570   -8.1000 C.ar   63  TYR63       0.0417
     52  CE2        0.6620   23.9250  -10.2180 C.ar   63  TYR63       0.0417
     53  CZ         0.1630   24.9670   -9.4520 C.ar   63  TYR63       0.1957
     54  OH        -0.6480   25.9050  -10.0470 O.3    63  TYR63      -0.2866
     55  N         12.0300   20.0130   -7.5670 N.3   305  SER305     -0.1202
     56  CA        12.7600   20.8020   -6.5900 C.3   305  SER305      0.2020
     57  C         12.0470   22.1160   -6.3030 C.2   305  SER305      0.2619
     58  O         11.8090   22.4620   -5.1480 O.2   305  SER305     -0.2717
     59  CB        14.1780   21.0820   -7.0890 C.3   305  SER305      0.2103
     60  OG        14.9410   21.7090   -6.0740 O.3   305  SER305     -0.2182
     61  N         11.6820   22.8320   -7.3610 N.am  306  LYS306     -0.1965
     62  CA        11.0150   24.1200   -7.2190 C.3   306  LYS306      0.1728
     63  C          9.6090   24.0780   -6.6380 C.2   306  LYS306      0.2617
     64  O          9.1820   25.0390   -5.9980 O.2   306  LYS306     -0.2715
     65  CB        10.9840   24.8370   -8.5660 C.3   306  LYS306      0.0311
     66  CG        12.3610   25.1230   -9.1030 C.3   306  LYS306      0.0038
     67  CD        12.3070   25.6640  -10.5070 C.3   306  LYS306      0.0206
     68  CE        13.6990   25.7110  -11.1060 C.3   306  LYS306      0.1093
     69  NZ        13.6690   26.2540  -12.4900 N.3   306  LYS306     -0.1314
     70  N          8.8900   22.9780   -6.8440 N.am  307  THR307     -0.1937
     71  CA         7.5280   22.8810   -6.3300 C.3   307  THR307      0.2028
     72  C          7.4370   22.1890   -4.9810 C.2   307  THR307      0.2642
     73  O          6.3690   22.1590   -4.3720 O.2   307  THR307     -0.2714
     74  CB         6.6060   22.1370   -7.3160 C.3   307  THR307      0.1808
     75  OG1        7.1230   20.8190   -7.5570 O.3   307  THR307     -0.2208
     76  CG2        6.5120   22.8960   -8.6330 C.3   307  THR307      0.0379
     77  N          8.5490   21.6290   -4.5180 N.am  308  GLY308     -0.1954
     78  CA         8.5550   20.9510   -3.2320 C.3   308  GLY308      0.1869
     79  C          8.1180   19.4950   -3.2850 C.2   308  GLY308      0.2309
     80  O          7.6430   18.9500   -2.2860 O.2   308  GLY308     -0.2863
@<TRIPOS>BOND
     1    69    68    1
     2    16    17   ar
     3    16    14   ar
     4    17    15   ar
     5     1     2    1
     6     7     5    1
     7    14    13   ar
     8    25    23   am
     9    68    67    1
    10     6     5    1
    11    15    13   ar
    12     2     5    1
    13     2     3    1
    14    67    66    1
    15    13    12    1
    16    24    23    2
    17    52    50   ar
    18    52    53   ar
    19    23    22    1
    20    54    53    1
    21     8     3   am
    22     8     9    1
    23    50    48   ar
    24     3     4    2
    25    53    51   ar
    26    12     9    1
    27    66    65    1
    28    22    19    1
    29     9    10    1
    30    76    74    1
    31    65    62    1
    32    18    10   am
    33    18    19    1
    34    48    47    1
    35    48    49   ar
    36    10    11    2
    37    51    49   ar
    38    19    20    1
    39    46    45    2
    40    47    44    1
    41    55    56    1
    42    75    74    1
    43    61    62    1
    44    61    57   am
    45    74    71    1
    46    62    63    1
    47    59    56    1
    48    59    60    1
    49    45    44    1
    50    70    63   am
    51    70    71    1
    52    20    21    2
    53    20    26   am
    54    63    64    2
    55    56    57    1
    56    44    43    1
    57    71    72    1
    58    57    58    2
    59    26    27    1
    60    29    28    2
    61    72    77   am
    62    72    73    2
    63    77    78    1
    64    28    27    1
    65    28    35   am
    66    27    30    1
    67    42    40   am
    68    35    36    1
    69    36    39    1
    70    36    37    1
    71    40    39    1
    72    40    41    2
    73    30    31    1
    74    79    78    1
    75    79    80    2
    76    31    32    1
    77    37    38    2
    78    32    33    1
    79    33    34    1
