@<TRIPOS>MOLECULE
tmp/2ri1A00.pdb
 123 118 0 0 0
SMALL
GASTEIGER

@<TRIPOS>ATOM
      1  N         51.2990   35.1310    8.6100 N.3    36  ALA36      -0.1231
      2  CA        49.9780   34.6230    9.0930 C.3    36  ALA36       0.1694
      3  C         49.9530   33.1230    9.2850 C.2    36  ALA36       0.2593
      4  O         50.6690   32.3560    8.5910 O.2    36  ALA36      -0.2718
      5  CB        48.8740   35.0010    8.1040 C.3    36  ALA36       0.0304
      6  N         49.0790   32.6790   10.1850 N.am   37  THR37      -0.1939
      7  CA        48.7950   31.2820   10.3490 C.3    37  THR37       0.2028
      8  C         47.3820   31.0070    9.9410 C.2    37  THR37       0.2643
      9  O         46.7170   31.8790    9.3850 O.2    37  THR37      -0.2714
     10  CB        49.0730   30.8070   11.8090 C.3    37  THR37       0.1808
     11  OG1       48.3790   31.6320   12.7480 O.3    37  THR37      -0.2208
     12  CG2       50.5580   30.9280   12.1090 C.3    37  THR37       0.0379
     13  N         46.9270   29.7720   10.1340 N.am   38  GLY38      -0.1939
     14  CA        45.5380   29.4110    9.8320 C.3    38  GLY38       0.2014
     15  C         45.4080   28.9240    8.3950 C.2    38  GLY38       0.2640
     16  O         46.3740   28.8030    7.6820 O.2    38  GLY38      -0.2714
     17  N         44.1890   28.6790    7.9760 N.am   39  SER39      -0.1935
     18  CA        43.8780   28.1820    6.6220 C.3    39  SER39       0.2055
     19  C         44.0760   29.2170    5.5210 C.2    39  SER39       0.2643
     20  O         44.4840   28.8810    4.3970 O.2    39  SER39      -0.2714
     21  CB        42.4330   27.6580    6.5780 C.3    39  SER39       0.2130
     22  OG        42.1570   27.0520    5.3140 O.3    39  SER39      -0.2179
     23  N         43.7810   30.4820    5.8320 N.am   40  THR40      -0.1950
     24  CA        43.7640   31.5680    4.8190 C.3    40  THR40       0.1897
     25  C         45.0280   31.7020    3.9020 C.2    40  THR40       0.2313
     26  O         44.8500   31.9260    2.6970 O.2    40  THR40      -0.2863
     27  CB        43.4700   32.9430    5.4640 C.3    40  THR40       0.1794
     28  OG1       42.2110   32.9210    6.1470 O.3    40  THR40      -0.2208
     29  CG2       43.4500   34.0790    4.4180 C.3    40  THR40       0.0378
     30  N         52.9460   36.2760   14.4770 N.3    63  LEU63      -0.1231
     31  CA        52.1520   36.9570   15.5000 C.3    63  LEU63       0.1693
     32  C         52.1090   36.3110   16.8740 C.2    63  LEU63       0.2592
     33  O         52.0590   37.0610   17.8970 O.2    63  LEU63      -0.2718
     34  CB        50.6860   37.1400   15.0280 C.3    63  LEU63       0.0284
     35  CG        50.5160   37.8540   13.7080 C.3    63  LEU63       0.0019
     36  CD1       49.0420   37.8060   13.3070 C.3    63  LEU63       0.0001
     37  CD2       50.9590   39.2590   13.8890 C.3    63  LEU63       0.0001
     38  N         52.1710   34.9570   16.9010 N.am   64  ASP64      -0.1974
     39  CA        51.6250   34.1250   17.9910 C.3    64  ASP64       0.1709
     40  C         52.4750   32.8790   18.2650 C.2    64  ASP64       0.2293
     41  O         53.0440   32.2710   17.3550 O.2    64  ASP64      -0.2864
     42  CB        50.2150   33.6180   17.6790 C.3    64  ASP64       0.1436
     43  CG        49.2380   34.7220   17.3900 C.2    64  ASP64       0.3671
     44  OD1       49.1280   35.7180   18.2040 O.co2  64  ASP64      -0.2456
     45  OD2       48.5420   34.6110   16.3510 O.co2  64  ASP64      -0.2456
     46  N         52.8950   26.8170   16.5540 N.3    77  TYR77      -0.1241
     47  CA        53.0520   27.6180   15.3610 C.3    77  TYR77       0.1605
     48  C         54.4780   27.6200   14.7620 C.2    77  TYR77       0.2264
     49  O         54.6080   27.8440   13.5700 O.2    77  TYR77      -0.2867
     50  CB        52.6080   29.0240   15.6690 C.3    77  TYR77       0.0534
     51  CG        51.0850   29.1820   15.7260 C.ar   77  TYR77      -0.0201
     52  CD1       50.2710   28.6410   14.7340 C.ar   77  TYR77      -0.0009
     53  CD2       50.4880   29.9640   16.7100 C.ar   77  TYR77      -0.0009
     54  CE1       48.8310   28.8220   14.7770 C.ar   77  TYR77       0.0417
     55  CE2       49.0880   30.2170   16.7120 C.ar   77  TYR77       0.0417
     56  CZ        48.2790   29.6670   15.7570 C.ar   77  TYR77       0.1957
     57  OH        46.9020   29.8890   15.8240 O.3    77  TYR77      -0.2866
     58  N         45.1860   37.1450    7.9940 N.3   126  GLY126     -0.1210
     59  CA        43.8150   36.7260    7.8180 C.3   126  GLY126      0.1956
     60  C         42.9150   37.4760    8.7800 C.2   126  GLY126      0.2612
     61  O         43.3410   38.2950    9.5620 O.2   126  GLY126     -0.2717
     62  N         41.6330   37.2240    8.6690 N.am  127  ILE127     -0.1965
     63  CA        40.6110   37.7760    9.5630 C.3   127  ILE127      0.1727
     64  C         39.7940   36.6290   10.2400 C.2   127  ILE127      0.2616
     65  O         39.5150   35.5700    9.6090 O.2   127  ILE127     -0.2715
     66  CB        39.7030   38.8100    8.7930 C.3   127  ILE127      0.0290
     67  CG1       38.8890   39.6570    9.7750 C.3   127  ILE127      0.0022
     68  CG2       38.8660   38.1160    7.7640 C.3   127  ILE127      0.0023
     69  CD1       38.1030   40.7720    9.1260 C.3   127  ILE127      0.0001
     70  N         39.4280   36.8010   11.5270 N.am  128  GLY128     -0.1955
     71  CA        38.5460   35.8620   12.1780 C.3   128  GLY128      0.1869
     72  C         37.0970   36.0540   11.7810 C.2   128  GLY128      0.2309
     73  O         36.7440   37.0960   11.2220 O.2   128  GLY128     -0.2863
     74  N         38.2340   39.0740   14.7480 N.3   132  HIS132     -0.1241
     75  CA        39.5250   38.9540   15.4820 C.3   132  HIS132      0.1621
     76  C         40.7120   38.9400   14.5110 C.2   132  HIS132      0.2264
     77  O         40.6010   38.5560   13.3240 O.2   132  HIS132     -0.2867
     78  CB        39.5780   37.7520   16.4660 C.3   132  HIS132      0.0745
     79  CG        39.6590   36.4020   15.8160 C.ar  132  HIS132      0.0817
     80  ND1       38.5550   35.5810   15.6470 N.ar  132  HIS132     -0.2268
     81  CD2       40.7210   35.7010   15.3500 C.ar  132  HIS132      0.1154
     82  CE1       38.9390   34.4390   15.0910 C.ar  132  HIS132      0.1986
     83  NE2       40.2450   34.4970   14.8840 N.ar  132  HIS132     -0.2212
     84  N         44.8010   37.9210   14.4350 N.3   134  GLY134     -0.1210
     85  CA        45.6930   37.0750   15.2060 C.3   134  GLY134      0.1956
     86  C         44.8380   36.4250   16.2930 C.2   134  GLY134      0.2611
     87  O         43.8160   35.7990   15.9880 O.2   134  GLY134     -0.2717
     88  N         45.3360   36.4880   17.5290 N.am  135  PHE135     -0.1976
     89  CA        44.5930   36.0910   18.6860 C.3   135  PHE135      0.1639
     90  C         43.9590   37.2880   19.4660 C.2   135  PHE135      0.2290
     91  O         43.5780   37.1560   20.6710 O.2   135  PHE135     -0.2864
     92  CB        45.4760   35.2740   19.6440 C.3   135  PHE135      0.0560
     93  CG        45.5770   33.7960   19.3190 C.ar  135  PHE135     -0.0200
     94  CD1       44.4780   33.1040   18.8370 C.ar  135  PHE135     -0.0042
     95  CD2       46.8000   33.0900   19.5270 C.ar  135  PHE135     -0.0042
     96  CE1       44.5800   31.6870   18.5100 C.ar  135  PHE135     -0.0003
     97  CE2       46.9110   31.7310   19.2370 C.ar  135  PHE135     -0.0003
     98  CZ        45.7800   31.0170   18.7160 C.ar  135  PHE135     -0.0000
     99  N         38.7120   27.6870   20.6130 N.3   155  THR155     -0.1218
    100  CA        40.0760   27.3890   20.2750 C.3   155  THR155      0.1862
    101  C         40.6380   26.2360   21.0930 C.2   155  THR155      0.2287
    102  O         41.2580   25.3610   20.5040 O.2   155  THR155     -0.2866
    103  CB        40.9810   28.6610   20.2940 C.3   155  THR155      0.1770
    104  OG1       40.5570   29.5450   19.2600 O.3   155  THR155     -0.2211
    105  CG2       42.4140   28.3390   20.0060 C.3   155  THR155      0.0375
    106  N         31.8100   32.7230    5.3990 N.3   195  GLU195     -0.1231
    107  CA        32.0200   32.7840    6.8420 C.3   195  GLU195      0.1699
    108  C         32.7710   34.0910    7.2420 C.2   195  GLU195      0.2592
    109  O         32.6860   34.5190    8.3970 O.2   195  GLU195     -0.2718
    110  CB        32.6990   31.4940    7.4040 C.3   195  GLU195      0.0402
    111  CG        33.6870   30.7890    6.4420 C.3   195  GLU195      0.1161
    112  CD        35.0850   30.4240    7.0400 C.2   195  GLU195      0.3649
    113  OE1       36.0880   30.9570    6.4860 O.co2 195  GLU195     -0.2457
    114  OE2       35.1920   29.6110    8.0170 O.co2 195  GLU195     -0.2457
    115  N         33.4370   34.7440    6.2730 N.am  196  LYS196     -0.1980
    116  CA        34.2030   35.9870    6.5450 C.3   196  LYS196      0.1596
    117  C         33.4950   37.3050    6.1760 C.2   196  LYS196      0.2287
    118  O         34.0260   38.3560    6.5270 O.2   196  LYS196     -0.2864
    119  CB        35.5930   35.9670    5.8780 C.3   196  LYS196      0.0298
    120  CG        36.4370   34.7200    6.1660 C.3   196  LYS196      0.0038
    121  CD        36.7470   34.6110    7.6470 C.3   196  LYS196      0.0206
    122  CE        37.5660   33.3950    7.9610 C.3   196  LYS196      0.1093
    123  NZ        39.0090   33.5660    7.6300 N.3   196  LYS196     -0.1314
@<TRIPOS>BOND
     1    26    25    2
     2    25    24    1
     3    20    19    2
     4    29    27    1
     5    24    27    1
     6    24    23    1
     7    22    21    1
     8   106   107    1
     9    27    28    1
    10    19    23   am
    11    19    18    1
    12   119   120    1
    13   119   116    1
    14   120   121    1
    15   117   118    2
    16   117   116    1
    17   115   116    1
    18   115   108   am
    19   111   112    1
    20   111   110    1
    21   113   112   ar
    22    21    18    1
    23    18    17    1
    24   107   108    1
    25   107   110    1
    26   112   114   ar
    27   108   109    2
    28   123   122    1
    29   121   122    1
    30    16    15    2
    31    68    66    1
    32    59    58    1
    33    59    60    1
    34    17    15   am
    35     5     2    1
    36    15    14    1
    37     4     3    2
    38     1     2    1
    39    62    60   am
    40    62    63    1
    41    60    61    2
    42    66    63    1
    43    66    67    1
    44     2     3    1
    45    69    67    1
    46     3     6   am
    47     9     8    2
    48    63    64    1
    49    65    64    2
    50    14    13    1
    51     8    13   am
    52     8     7    1
    53     6     7    1
    54    64    70   am
    55     7    10    1
    56    73    72    2
    57    70    71    1
    58    72    71    1
    59    10    12    1
    60    10    11    1
    61    36    35    1
    62    77    76    2
    63    49    48    2
    64    35    37    1
    65    35    34    1
    66    84    85    1
    67    30    31    1
    68    76    75    1
    69    52    54   ar
    70    52    51   ar
    71    74    75    1
    72    48    47    1
    73    54    56   ar
    74    83    82   ar
    75    83    81   ar
    76    34    31    1
    77    82    80   ar
    78    85    86    1
    79    81    79   ar
    80    47    50    1
    81    47    46    1
    82    75    78    1
    83    31    32    1
    84    80    79   ar
    85    50    51    1
    86    51    53   ar
    87    56    57    1
    88    56    55   ar
    89    79    78    1
    90    87    86    2
    91    86    88   am
    92    45    43   ar
    93    53    55   ar
    94    32    38   am
    95    32    33    2
    96    38    39    1
    97    41    40    2
    98    43    42    1
    99    43    44   ar
   100    88    89    1
   101    42    39    1
   102    39    40    1
   103    96    98   ar
   104    96    94   ar
   105    89    90    1
   106    89    92    1
   107    98    97   ar
   108    94    93   ar
   109    97    95   ar
   110   104   103    1
   111    93    95   ar
   112    93    92    1
   113    90    91    2
   114   105   103    1
   115   100   103    1
   116   100    99    1
   117   100   101    1
   118   102   101    2
