@<TRIPOS>MOLECULE
tmp/2ri4D00.pdb
 212 204 0 0 0
SMALL
GASTEIGER

@<TRIPOS>ATOM
      1  N        -13.7140   16.1540    1.1660 N.3    27  LEU27      -0.1245
      2  CA       -14.0640   15.3820   -0.0080 C.3    27  LEU27       0.1561
      3  C        -13.3600   16.0540   -1.1300 C.2    27  LEU27       0.2260
      4  O        -12.9150   15.4000   -2.0350 O.2    27  LEU27      -0.2867
      5  CB       -15.6000   15.3280   -0.2070 C.3    27  LEU27       0.0270
      6  CG       -16.4250   14.0940   -0.6990 C.3    27  LEU27       0.0019
      7  CD1      -17.0110   14.3130   -2.0730 C.3    27  LEU27       0.0001
      8  CD2      -15.7430   12.7000   -0.6430 C.3    27  LEU27       0.0001
      9  N         -9.5120   15.0470   -0.3850 N.3    30  LEU30      -0.1245
     10  CA        -9.4860   13.6540   -0.8760 C.3    30  LEU30       0.1561
     11  C         -9.3250   13.6220   -2.3810 C.2    30  LEU30       0.2260
     12  O         -8.5220   12.8520   -2.8960 O.2    30  LEU30      -0.2867
     13  CB       -10.7560   12.8730   -0.5300 C.3    30  LEU30       0.0270
     14  CG       -10.8780   11.4830   -1.2040 C.3    30  LEU30       0.0019
     15  CD1       -9.6840   10.5690   -0.9210 C.3    30  LEU30       0.0001
     16  CD2      -12.1350   10.7190   -0.8740 C.3    30  LEU30       0.0001
     17  N         -9.4160    9.1370   -7.2280 N.3    37  THR37      -0.1218
     18  CA       -10.6840    9.1270   -6.5390 C.3    37  THR37       0.1862
     19  C        -11.7140    9.9080   -7.3370 C.2    37  THR37       0.2287
     20  O        -12.9160    9.7290   -7.1470 O.2    37  THR37      -0.2866
     21  CB       -10.5480    9.7540   -5.1540 C.3    37  THR37       0.1770
     22  OG1      -10.1580   11.1310   -5.2790 O.3    37  THR37      -0.2211
     23  CG2       -9.5000    8.9850   -4.3180 C.3    37  THR37       0.0375
     24  N        -14.7010    7.6630   -9.5240 N.3    40  PHE40      -0.1227
     25  CA       -15.9880    7.4030   -8.9460 C.3    40  PHE40       0.1736
     26  C        -16.8700    8.6440   -8.9530 C.2    40  PHE40       0.2595
     27  O        -18.0640    8.5300   -8.6810 O.2    40  PHE40      -0.2718
     28  CB       -15.7570    6.9080   -7.5540 C.3    40  PHE40       0.0547
     29  CG       -14.6080    6.0130   -7.4670 C.ar   40  PHE40      -0.0202
     30  CD1      -13.3420    6.5250   -7.2040 C.ar   40  PHE40      -0.0042
     31  CD2      -14.7650    4.6550   -7.7000 C.ar   40  PHE40      -0.0042
     32  CE1      -12.2320    5.6810   -7.1330 C.ar   40  PHE40      -0.0003
     33  CE2      -13.6830    3.7950   -7.6320 C.ar   40  PHE40      -0.0003
     34  CZ       -12.3990    4.3100   -7.3380 C.ar   40  PHE40      -0.0000
     35  N        -16.2880    9.8090   -9.2770 N.am   41  PHE41      -0.1976
     36  CA       -17.0410   11.0700   -9.3810 C.3    41  PHE41       0.1639
     37  C        -16.7770   11.8220  -10.6890 C.2    41  PHE41       0.2290
     38  O        -16.4360   13.0060  -10.6500 O.2    41  PHE41      -0.2864
     39  CB       -16.7420   12.0290   -8.1990 C.3    41  PHE41       0.0560
     40  CG       -16.7300   11.3670   -6.8570 C.ar   41  PHE41      -0.0200
     41  CD1      -17.8720   11.2880   -6.1030 C.ar   41  PHE41      -0.0042
     42  CD2      -15.5590   10.8140   -6.3530 C.ar   41  PHE41      -0.0042
     43  CE1      -17.8480   10.6710   -4.8780 C.ar   41  PHE41      -0.0003
     44  CE2      -15.5330   10.1910   -5.1180 C.ar   41  PHE41      -0.0003
     45  CZ       -16.6670   10.1220   -4.3860 C.ar   41  PHE41      -0.0000
     46  N        -19.1850   12.2180  -12.8290 N.3    43  HIS43      -0.1226
     47  CA       -20.5040   12.8510  -12.9990 C.3    43  HIS43       0.1752
     48  C        -20.6330   14.2310  -12.3280 C.2    43  HIS43       0.2596
     49  O        -21.4820   15.0360  -12.7180 O.2    43  HIS43      -0.2718
     50  CB       -21.6950   11.8970  -12.6520 C.3    43  HIS43       0.0759
     51  CG       -21.6660   11.3000  -11.2620 C.ar   43  HIS43       0.0818
     52  ND1      -21.4320    9.9580  -11.0240 N.ar   43  HIS43      -0.2268
     53  CD2      -21.8940   11.8480  -10.0480 C.ar   43  HIS43       0.1154
     54  CE1      -21.4500    9.7200   -9.7300 C.ar   43  HIS43       0.1986
     55  NE2      -21.7330   10.8490   -9.1150 N.ar   43  HIS43      -0.2212
     56  N        -19.7630   14.5310  -11.3750 N.am   44  PHE44      -0.1976
     57  CA       -19.8780   15.7680  -10.6420 C.3    44  PHE44       0.1639
     58  C        -19.4080   16.9240  -11.4680 C.2    44  PHE44       0.2290
     59  O        -19.1700   18.0070  -10.9550 O.2    44  PHE44      -0.2864
     60  CB       -19.0430   15.7110   -9.3730 C.3    44  PHE44       0.0560
     61  CG       -19.6680   14.9340   -8.2650 C.ar   44  PHE44      -0.0200
     62  CD1      -20.7340   14.1020   -8.4900 C.ar   44  PHE44      -0.0042
     63  CD2      -19.1580   15.0290   -6.9920 C.ar   44  PHE44      -0.0042
     64  CE1      -21.2630   13.3710   -7.4740 C.ar   44  PHE44      -0.0003
     65  CE2      -19.6970   14.3100   -5.9640 C.ar   44  PHE44      -0.0003
     66  CZ       -20.7510   13.4720   -6.2030 C.ar   44  PHE44      -0.0000
     67  N        -21.9530   16.1060   -1.3630 N.3    62  HIS62      -0.1241
     68  CA       -21.3960   14.8470   -0.8840 C.3    62  HIS62       0.1621
     69  C        -20.4870   14.9820    0.3660 C.2    62  HIS62       0.2264
     70  O        -20.4510   14.1050    1.2440 O.2    62  HIS62      -0.2867
     71  CB       -20.6540   14.1630   -2.0080 C.3    62  HIS62       0.0745
     72  CG       -20.8200   12.6890   -1.9930 C.ar   62  HIS62       0.0817
     73  ND1      -21.9430   12.0710   -2.4940 N.ar   62  HIS62      -0.2268
     74  CD2      -20.0280   11.7110   -1.5000 C.ar   62  HIS62       0.1154
     75  CE1      -21.8280   10.7690   -2.3200 C.ar   62  HIS62       0.1986
     76  NE2      -20.6770   10.5240   -1.7160 N.ar   62  HIS62      -0.2212
     77  N        -23.0640   14.4740    3.4620 N.3    65  LYS65      -0.1231
     78  CA       -23.6090   13.1160    3.8330 C.3    65  LYS65       0.1693
     79  C        -22.6140   12.1270    4.4310 C.2    65  LYS65       0.2591
     80  O        -22.9740   11.3360    5.3040 O.2    65  LYS65      -0.2718
     81  CB       -24.2980   12.4010    2.6530 C.3    65  LYS65       0.0285
     82  CG       -25.6600   12.9340    2.2400 C.3    65  LYS65       0.0035
     83  CD       -26.3550   11.9390    1.3390 C.3    65  LYS65       0.0206
     84  CE       -27.5330   12.5840    0.5750 C.3    65  LYS65       0.1093
     85  NZ       -28.3730   11.5720   -0.1820 N.3    65  LYS65      -0.1314
     86  N        -21.3730   12.1390    3.9390 N.am   66  VAL66      -0.1980
     87  CA       -20.3370   11.2310    4.4460 C.3    66  VAL66       0.1595
     88  C        -20.0210   11.5420    5.8890 C.2    66  VAL66       0.2287
     89  O        -19.8900   10.6360    6.6990 O.2    66  VAL66      -0.2864
     90  CB       -19.0490   11.3170    3.6400 C.3    66  VAL66       0.0276
     91  CG1      -18.0430   10.3190    4.1640 C.3    66  VAL66       0.0022
     92  CG2      -19.3200   11.0830    2.1600 C.3    66  VAL66       0.0022
     93  N        -22.5230   10.3810    7.7880 N.3    69  SER69      -0.1202
     94  CA       -22.4290    8.9500    8.1550 C.3    69  SER69       0.2020
     95  C        -21.5040    8.7000    9.3250 C.2    69  SER69       0.2618
     96  O        -21.7110    7.7460   10.0570 O.2    69  SER69      -0.2717
     97  CB       -21.9990    8.0680    7.0010 C.3    69  SER69       0.2103
     98  OG       -22.6010    8.5010    5.8150 O.3    69  SER69      -0.2182
     99  N        -20.4770    9.5430    9.4760 N.am   70  PHE70      -0.1975
    100  CA       -19.5880    9.4660   10.6190 C.3    70  PHE70       0.1639
    101  C        -20.3990    9.8390   11.8500 C.2    70  PHE70       0.2290
    102  O        -20.4440    9.0610   12.8180 O.2    70  PHE70      -0.2864
    103  CB       -18.3980   10.4110   10.4830 C.3    70  PHE70       0.0560
    104  CG       -17.2290    9.8320    9.7180 C.ar   70  PHE70      -0.0200
    105  CD1      -17.2010    9.8730    8.3170 C.ar   70  PHE70      -0.0042
    106  CD2      -16.1400    9.2770   10.4010 C.ar   70  PHE70      -0.0042
    107  CE1      -16.1350    9.3510    7.6150 C.ar   70  PHE70      -0.0003
    108  CE2      -15.0490    8.7580    9.7020 C.ar   70  PHE70      -0.0003
    109  CZ       -15.0520    8.7830    8.3060 C.ar   70  PHE70      -0.0000
    110  N        -22.6580    0.2710    9.0010 N.3    84  PHE84      -0.1241
    111  CA       -22.0080    0.4410    7.6940 C.3    84  PHE84       0.1605
    112  C        -22.0890   -0.8120    6.8100 C.2    84  PHE84       0.2264
    113  O        -21.4580   -0.8730    5.7280 O.2    84  PHE84      -0.2867
    114  CB       -20.5480    0.8810    7.8780 C.3    84  PHE84       0.0534
    115  CG       -20.3970    2.2580    8.4780 C.ar   84  PHE84      -0.0203
    116  CD1      -20.7950    3.3900    7.7760 C.ar   84  PHE84      -0.0042
    117  CD2      -19.8560    2.4220    9.7480 C.ar   84  PHE84      -0.0042
    118  CE1      -20.6590    4.6590    8.3280 C.ar   84  PHE84      -0.0003
    119  CE2      -19.7230    3.6870   10.3030 C.ar   84  PHE84      -0.0003
    120  CZ       -20.1230    4.8010    9.5870 C.ar   84  PHE84      -0.0000
    121  N        -23.5010    0.1970    3.5090 N.3    87  LEU87      -0.1245
    122  CA       -22.5850    1.0440    2.7290 C.3    87  LEU87       0.1561
    123  C        -21.2970    0.3020    2.2770 C.2    87  LEU87       0.2260
    124  O        -20.6090    0.7510    1.3540 O.2    87  LEU87      -0.2867
    125  CB       -22.3230    2.3910    3.4180 C.3    87  LEU87       0.0270
    126  CG       -23.4930    3.3800    3.4130 C.3    87  LEU87       0.0019
    127  CD1      -23.3720    4.2970    4.5900 C.3    87  LEU87       0.0001
    128  CD2      -23.5690    4.1640    2.1150 C.3    87  LEU87       0.0001
    129  N        -22.7750   -1.0290   -1.2430 N.3    90  LEU90      -0.1231
    130  CA       -22.7300    0.0170   -2.2480 C.3    90  LEU90       0.1693
    131  C        -21.3070    0.1840   -2.7230 C.2    90  LEU90       0.2592
    132  O        -21.0560    0.1750   -3.9100 O.2    90  LEU90      -0.2718
    133  CB       -23.3340    1.3200   -1.6900 C.3    90  LEU90       0.0284
    134  CG       -23.0570    2.7050   -2.2630 C.3    90  LEU90       0.0019
    135  CD1      -23.3780    2.8270   -3.7290 C.3    90  LEU90       0.0001
    136  CD2      -23.8580    3.7070   -1.4880 C.3    90  LEU90       0.0001
    137  N        -20.3840    0.2780   -1.7720 N.am   91  HIS91      -0.1976
    138  CA       -18.9900    0.6280   -2.0430 C.3    91  HIS91       0.1656
    139  C        -18.1570   -0.5310   -2.6020 C.2    91  HIS91       0.2291
    140  O        -17.1440   -0.2950   -3.2720 O.2    91  HIS91      -0.2864
    141  CB       -18.3180    1.2090   -0.7860 C.3    91  HIS91       0.0771
    142  CG       -18.7790    2.5900   -0.4350 C.ar   91  HIS91       0.0820
    143  ND1      -19.7570    2.8330    0.5070 N.ar   91  HIS91      -0.2267
    144  CD2      -18.3860    3.8050   -0.8930 C.ar   91  HIS91       0.1154
    145  CE1      -19.9480    4.1370    0.6090 C.ar   91  HIS91       0.1986
    146  NE2      -19.1330    4.7500   -0.2330 N.ar   91  HIS91      -0.2212
    147  N        -19.9790    0.3060   -6.9550 N.3    95  LEU95      -0.1245
    148  CA       -18.9840    1.2810   -7.4180 C.3    95  LEU95       0.1561
    149  C        -17.5780    0.6610   -7.4240 C.2    95  LEU95       0.2260
    150  O        -16.6730    1.2010   -8.0490 O.2    95  LEU95      -0.2867
    151  CB       -18.9470    2.4820   -6.4810 C.3    95  LEU95       0.0270
    152  CG       -20.2180    3.1580   -5.9860 C.3    95  LEU95       0.0019
    153  CD1      -20.0290    3.6430   -4.5460 C.3    95  LEU95       0.0001
    154  CD2      -20.6340    4.3070   -6.9120 C.3    95  LEU95       0.0001
    155  N        -15.1620    0.7070   -5.3340 N.3    97  VAL97      -0.1245
    156  CA       -14.1200    1.3620   -4.5720 C.3    97  VAL97       0.1561
    157  C        -13.2670    0.3310   -3.8520 C.2    97  VAL97       0.2260
    158  O        -13.7630   -0.4560   -3.0290 O.2    97  VAL97      -0.2867
    159  CB       -14.7310    2.2930   -3.5180 C.3    97  VAL97       0.0252
    160  CG1      -13.6510    2.8570   -2.6000 C.3    97  VAL97       0.0019
    161  CG2      -15.5150    3.4210   -4.2020 C.3    97  VAL97       0.0019
    162  N         -8.7630    2.9920   -0.5170 N.3   101  ASN101     -0.1225
    163  CA        -9.2940    4.3330   -0.6550 C.3   101  ASN101      0.1785
    164  C        -10.0560    4.8370    0.5480 C.2   101  ASN101      0.2597
    165  O        -10.0000    6.0190    0.8120 O.2   101  ASN101     -0.2718
    166  CB       -10.1090    4.4610   -1.9100 C.3   101  ASN101      0.1169
    167  CG        -9.2600    4.8160   -3.1110 C.2   101  ASN101      0.2627
    168  OD1       -8.7490    5.9430   -3.2330 O.2   101  ASN101     -0.2716
    169  ND2       -9.0960    3.8510   -4.0140 N.am  101  ASN101     -0.0877
    170  N        -10.7230    3.9550    1.2960 N.am  102  PHE102     -0.1976
    171  CA       -11.4250    4.3700    2.5010 C.3   102  PHE102      0.1639
    172  C        -10.4010    4.9320    3.4480 C.2   102  PHE102      0.2290
    173  O        -10.4690    6.0910    3.8750 O.2   102  PHE102     -0.2864
    174  CB       -12.1850    3.2190    3.1930 C.3   102  PHE102      0.0560
    175  CG       -13.0530    2.3970    2.2680 C.ar  102  PHE102     -0.0200
    176  CD1      -13.9020    3.0000    1.3490 C.ar  102  PHE102     -0.0042
    177  CD2      -13.0280    1.0130    2.3280 C.ar  102  PHE102     -0.0042
    178  CE1      -14.6930    2.2220    0.4810 C.ar  102  PHE102     -0.0003
    179  CE2      -13.8180    0.2380    1.4550 C.ar  102  PHE102     -0.0003
    180  CZ       -14.6440    0.8520    0.5340 C.ar  102  PHE102     -0.0000
    181  N         -9.4450    8.3900    2.9700 N.3   105  LEU105     -0.1231
    182  CA       -10.4550    9.3940    3.3190 C.3   105  LEU105      0.1693
    183  C        -10.4690    9.6520    4.8230 C.2   105  LEU105      0.2592
    184  O        -10.7810   10.7500    5.2610 O.2   105  LEU105     -0.2718
    185  CB       -11.8440    9.0040    2.7980 C.3   105  LEU105      0.0284
    186  CG       -13.1170    9.7800    3.2400 C.3   105  LEU105      0.0019
    187  CD1      -13.0360   11.2810    3.0730 C.3   105  LEU105      0.0001
    188  CD2      -14.3460    9.2630    2.5110 C.3   105  LEU105      0.0001
    189  N        -10.1200    8.6540    5.6120 N.am  106  GLY106     -0.1957
    190  CA       -10.0440    8.8570    7.0400 C.3   106  GLY106      0.1869
    191  C         -8.8670    9.7470    7.3760 C.2   106  GLY106      0.2309
    192  O         -9.0160   10.8160    7.9970 O.2   106  GLY106     -0.2863
    193  N        -14.2830    2.6700   11.2160 N.3   136  VAL136     -0.1231
    194  CA       -15.2200    3.0070   10.1700 C.3   136  VAL136      0.1692
    195  C        -14.7580    2.4120    8.8470 C.2   136  VAL136      0.2591
    196  O        -15.5260    1.7080    8.1740 O.2   136  VAL136     -0.2718
    197  CB       -15.4150    4.5400   10.0550 C.3   136  VAL136      0.0266
    198  CG1      -16.2760    4.8970    8.8290 C.3   136  VAL136      0.0020
    199  CG2      -16.0160    5.1020   11.3610 C.3   136  VAL136      0.0020
    200  N        -13.4960    2.6840    8.5040 N.am  137  ALA137     -0.1980
    201  CA       -12.8980    2.1870    7.2760 C.3   137  ALA137      0.1597
    202  C        -12.6890    0.6850    7.3540 C.2   137  ALA137      0.2287
    203  O        -12.7430   -0.0030    6.3480 O.2   137  ALA137     -0.2864
    204  CB       -11.6080    2.9080    6.9790 C.3   137  ALA137      0.0319
    205  N        -16.4500   -0.3480    6.5650 N.3   140  LEU140     -0.1245
    206  CA       -16.8940   -0.1330    5.1810 C.3   140  LEU140      0.1561
    207  C        -16.4450   -1.1970    4.1950 C.2   140  LEU140      0.2260
    208  O        -16.9940   -1.3100    3.0920 O.2   140  LEU140     -0.2867
    209  CB       -16.4380    1.2290    4.6660 C.3   140  LEU140      0.0270
    210  CG       -17.5030    2.3160    4.7980 C.3   140  LEU140      0.0019
    211  CD1      -17.2450    3.3890    3.7510 C.3   140  LEU140      0.0001
    212  CD2      -18.9330    1.7750    4.6620 C.3   140  LEU140      0.0001
@<TRIPOS>BOND
     1    47    46    1
     2    47    50    1
     3    47    48    1
     4    49    48    2
     5    50    51    1
     6    48    56   am
     7    58    59    2
     8    58    57    1
     9    56    57    1
    10    51    52   ar
    11    51    53   ar
    12    52    54   ar
    13    37    38    2
    14    37    36    1
    15    57    60    1
    16    53    55   ar
    17    54    55   ar
    18    24    25    1
    19    36    35    1
    20    36    39    1
    21    60    61    1
    22    35    26   am
    23    26    25    1
    24    26    27    2
    25    25    28    1
    26    62    61   ar
    27    62    64   ar
    28    61    63   ar
    29    39    40    1
    30   150   149    2
    31    31    33   ar
    32    31    29   ar
    33    33    34   ar
    34    28    29    1
    35    64    66   ar
    36    29    30   ar
    37   149   148    1
    38   148   147    1
    39   148   151    1
    40    34    32   ar
    41    19    20    2
    42    19    18    1
    43    17    18    1
    44    30    32   ar
    45    63    65   ar
    46   154   152    1
    47    40    42   ar
    48    40    41   ar
    49    18    21    1
    50   151   152    1
    51    42    44   ar
    52    66    65   ar
    53    41    43   ar
    54   152   153    1
    55   155   156    1
    56    22    21    1
    57    21    23    1
    58    44    45   ar
    59    43    45   ar
    60   156   157    1
    61   156   159    1
    62   161   159    1
    63   169   167   am
    64   132   131    2
    65   157   158    2
    66   135   134    1
    67   159   160    1
    68   140   139    2
    69   168   167    2
    70   167   166    1
    71    12    11    2
    72   131   130    1
    73   131   137   am
    74   139   138    1
    75    73    75   ar
    76    73    72   ar
    77    11    10    1
    78    75    76   ar
    79   134   133    1
    80   134   136    1
    81   130   133    1
    82   130   129    1
    83     7     6    1
    84   138   137    1
    85   138   141    1
    86     4     3    2
    87    71    72    1
    88    71    68    1
    89    72    74   ar
    90   166   163    1
    91    76    74   ar
    92    67    68    1
    93    14    15    1
    94    14    16    1
    95    14    13    1
    96     3     2    1
    97   144   142   ar
    98   144   146   ar
    99    68    69    1
   100    10    13    1
   101    10     9    1
   102   141   142    1
   103     6     8    1
   104     6     5    1
   105   163   162    1
   106   163   164    1
   107   142   143   ar
   108   146   145   ar
   109     5     2    1
   110    85    84    1
   111     2     1    1
   112    69    70    2
   113   178   180   ar
   114   178   176   ar
   115   143   145   ar
   116   180   179   ar
   117   164   165    2
   118   164   170   am
   119    84    83    1
   120   170   171    1
   121    83    82    1
   122   176   175   ar
   123   124   123    2
   124   179   177   ar
   125   128   126    1
   126    92    90    1
   127    82    81    1
   128   175   177   ar
   129   175   174    1
   130   123   122    1
   131   171   174    1
   132   171   172    1
   133   188   186    1
   134    81    78    1
   135   122   125    1
   136   122   121    1
   137   185   186    1
   138   185   182    1
   139   181   182    1
   140   187   186    1
   141   208   207    2
   142   182   183    1
   143   126   125    1
   144   126   127    1
   145   172   173    2
   146    77    78    1
   147    90    91    1
   148    90    87    1
   149   211   210    1
   150    78    79    1
   151    86    79   am
   152    86    87    1
   153   207   206    1
   154    79    80    2
   155    87    88    1
   156   212   210    1
   157   209   210    1
   158   209   206    1
   159   183   184    2
   160   183   189   am
   161   206   205    1
   162   189   190    1
   163   113   112    2
   164    98    97    1
   165    88    89    2
   166   203   202    2
   167   112   111    1
   168   204   201    1
   169    97    94    1
   170   190   191    1
   171   201   202    1
   172   201   200    1
   173   191   192    2
   174   107   109   ar
   175   107   105   ar
   176   111   114    1
   177   111   110    1
   178   116   118   ar
   179   116   115   ar
   180    93    94    1
   181   114   115    1
   182    94    95    1
   183   196   195    2
   184   109   108   ar
   185   105   104   ar
   186   118   120   ar
   187   115   117   ar
   188   200   195   am
   189   198   197    1
   190   195   194    1
   191    95    99   am
   192    95    96    2
   193    99   100    1
   194   120   119   ar
   195   108   106   ar
   196   104   106   ar
   197   104   103    1
   198   117   119   ar
   199   197   194    1
   200   197   199    1
   201   194   193    1
   202   103   100    1
   203   100   101    1
   204   101   102    2
