@<TRIPOS>MOLECULE
tmp/2ri5A01.pdb
 93 92 0 0 0
SMALL
GASTEIGER

@<TRIPOS>ATOM
      1  N         16.0440   14.7630   12.6190 N.3    42  ILE42      -0.1245
      2  CA        16.4300   13.6850   13.5160 C.3    42  ILE42       0.1561
      3  C         15.7760   12.3970   13.0360 C.2    42  ILE42       0.2260
      4  O         14.7280   12.4230   12.3910 O.2    42  ILE42      -0.2867
      5  CB        15.9470   13.9130   14.9700 C.3    42  ILE42       0.0252
      6  CG1       14.4150   13.8990   15.0140 C.3    42  ILE42       0.0019
      7  CG2       16.4890   15.2310   15.5130 C.3    42  ILE42       0.0019
      8  CD1       13.8310   13.7120   16.4210 C.3    42  ILE42       0.0001
      9  N         13.6240    9.5400   13.8930 N.3    44  PRO44      -0.2116
     10  CA        12.6680    9.2570   14.9710 C.3    44  PRO44       0.1372
     11  C         13.0410    8.0500   15.8230 C.2    44  PRO44       0.2244
     12  O         12.6440    7.9510   16.9850 O.2    44  PRO44      -0.2868
     13  CB        11.3550    9.0450   14.2210 C.3    44  PRO44       0.0268
     14  CG        11.4910    9.9790   13.0560 C.3    44  PRO44       0.0207
     15  CD        12.9250    9.7390   12.6100 C.3    44  PRO44       0.0892
     16  N         16.7030    9.4840   17.9280 N.3    47  PRO47      -0.2116
     17  CA        16.4850   10.9020   18.1840 C.3    47  PRO47       0.1372
     18  C         17.7110   11.7730   18.3910 C.2    47  PRO47       0.2244
     19  O         17.6030   12.9910   18.3290 O.2    47  PRO47      -0.2868
     20  CB        15.5330   10.8970   19.3730 C.3    47  PRO47       0.0268
     21  CG        15.9350    9.6470   20.1200 C.3    47  PRO47       0.0207
     22  CD        16.0780    8.6660   18.9840 C.3    47  PRO47       0.0892
     23  N         11.4540   19.1590   14.6650 N.3    83  ASP83      -0.1239
     24  CA        12.4420   18.0890   14.5430 C.3    83  ASP83       0.1674
     25  C         13.1070   17.9810   13.1770 C.2    83  ASP83       0.2266
     26  O         13.8000   16.9960   12.8860 O.2    83  ASP83      -0.2867
     27  CB        11.7990   16.7540   14.9130 C.3    83  ASP83       0.1410
     28  CG        11.1730   16.7860   16.2960 C.2    83  ASP83       0.3668
     29  OD1       11.8990   17.0440   17.2710 O.co2  83  ASP83      -0.2456
     30  OD2        9.9510   16.5730   16.4040 O.co2  83  ASP83      -0.2456
     31  N         10.2070    6.2650   29.5750 N.3   150  ARG150     -0.1231
     32  CA         9.0060    6.1190   28.7500 C.3   150  ARG150      0.1694
     33  C          9.0610    5.0770   27.6370 C.2   150  ARG150      0.2591
     34  O          8.0360    4.5020   27.2880 O.2   150  ARG150     -0.2718
     35  CB         8.6450    7.4620   28.1100 C.3   150  ARG150      0.0321
     36  CG         8.4120    8.5940   29.0850 C.3   150  ARG150      0.0489
     37  CD         8.4690    9.9400   28.3700 C.3   150  ARG150      0.2205
     38  NE         7.3150   10.1880   27.5110 N.pl3 150  ARG150     -0.0865
     39  CZ         7.2110   11.2250   26.6840 C.cat 150  ARG150      0.5346
     40  NH1        8.1950   12.1110   26.5970 N.pl3 150  ARG150      0.1354
     41  NH2        6.1190   11.3860   25.9530 N.pl3 150  ARG150      0.1354
     42  N         10.2430    4.8600   27.0660 N.am  151  MET151     -0.1979
     43  CA        10.4170    3.9050   25.9660 C.3   151  MET151      0.1605
     44  C         10.6050    2.4780   26.4690 C.2   151  MET151      0.2287
     45  O         10.4430    1.5210   25.7130 O.2   151  MET151     -0.2864
     46  CB        11.6400    4.2840   25.1190 C.3   151  MET151      0.0413
     47  CG        11.6640    5.7150   24.5990 C.3   151  MET151      0.0598
     48  SD        10.7430    5.9620   23.0740 S.3   151  MET151     -0.1393
     49  CE         9.1300    6.2590   23.7120 C.3   151  MET151      0.0692
     50  N         16.0080    7.1540   24.2690 N.3   181  ASP181     -0.1225
     51  CA        16.0250    8.6000   24.4700 C.3   181  ASP181      0.1805
     52  C         14.7710    9.2420   23.9090 C.2   181  ASP181      0.2598
     53  O         14.0530    8.6530   23.1090 O.2   181  ASP181     -0.2718
     54  CB        17.2400    9.2250   23.7680 C.3   181  ASP181      0.1424
     55  CG        18.5670    8.7050   24.2900 C.2   181  ASP181      0.3668
     56  OD1       18.5710    8.0260   25.3300 O.co2 181  ASP181     -0.2456
     57  OD2       19.6020    8.9920   23.6500 O.co2 181  ASP181     -0.2456
     58  N         14.5060   10.4620   24.3520 N.am  182  TYR182     -0.1962
     59  CA        13.3530   11.1940   23.8540 C.3   182  TYR182      0.1771
     60  C         13.5220   12.6900   24.0390 C.2   182  TYR182      0.2619
     61  O         14.1680   13.1350   24.9930 O.2   182  TYR182     -0.2715
     62  CB        12.0470   10.7330   24.5350 C.3   182  TYR182      0.0574
     63  CG        12.0200   10.8000   26.0510 C.ar  182  TYR182     -0.0198
     64  CD1       11.6210   11.9600   26.7130 C.ar  182  TYR182     -0.0009
     65  CD2       12.3200    9.6750   26.8230 C.ar  182  TYR182     -0.0009
     66  CE1       11.5130   11.9980   28.1110 C.ar  182  TYR182      0.0417
     67  CE2       12.2110    9.6990   28.2140 C.ar  182  TYR182      0.0417
     68  CZ        11.8040   10.8600   28.8520 C.ar  182  TYR182      0.1957
     69  OH        11.6600   10.8730   30.2230 O.3   182  TYR182     -0.2866
     70  N         12.9620   13.4590   23.1090 N.am  183  TRP183     -0.1974
     71  CA        13.0360   14.9020   23.1760 C.3   183  TRP183      0.1640
     72  C         12.0130   15.3510   24.1950 C.2   183  TRP183      0.2290
     73  O         10.9350   14.7630   24.3270 O.2   183  TRP183     -0.2864
     74  CB        12.7930   15.5260   21.8040 C.3   183  TRP183      0.0576
     75  CG        14.0170   15.4130   20.9360 C.ar  183  TRP183      0.0006
     76  CD1       14.3650   14.3610   20.1300 C.ar  183  TRP183      0.0946
     77  CD2       15.0970   16.3550   20.8540 C.ar  183  TRP183      0.0152
     78  NE1       15.5950   14.5900   19.5550 N.ar  183  TRP183     -0.2442
     79  CE2       16.0660   15.8060   19.9820 C.ar  183  TRP183      0.0810
     80  CE3       15.3400   17.6090   21.4360 C.ar  183  TRP183      0.0012
     81  CZ2       17.2600   16.4670   19.6780 C.ar  183  TRP183      0.0191
     82  CZ3       16.5350   18.2690   21.1300 C.ar  183  TRP183      0.0001
     83  CH2       17.4760   17.6930   20.2590 C.ar  183  TRP183      0.0015
     84  N          0.9610   15.6630   22.2280 N.3   291  HIS291     -0.1241
     85  CA         1.5260   14.9770   21.0750 C.3   291  HIS291      0.1621
     86  C          1.1040   15.6940   19.7910 C.2   291  HIS291      0.2264
     87  O         -0.0670   16.0270   19.6100 O.2   291  HIS291     -0.2867
     88  CB         1.0530   13.5260   21.0270 C.3   291  HIS291      0.0745
     89  CG         1.8000   12.6990   20.0330 C.ar  291  HIS291      0.0817
     90  ND1        2.8240   11.8480   20.3920 N.ar  291  HIS291     -0.2268
     91  CD2        1.7190   12.6410   18.6830 C.ar  291  HIS291      0.1154
     92  CE1        3.3400   11.3030   19.3060 C.ar  291  HIS291      0.1986
     93  NE2        2.6890   11.7680   18.2560 N.ar  291  HIS291     -0.2212
@<TRIPOS>BOND
     1     4     3    2
     2    15    14    1
     3    15     9    1
     4     1     2    1
     5    26    25    2
     6     3     2    1
     7    14    13    1
     8    25    24    1
     9     2     5    1
    10     9    10    1
    11    13    10    1
    12    24    23    1
    13    24    27    1
    14    27    28    1
    15     5     6    1
    16     5     7    1
    17    10    11    1
    18     6     8    1
    19    11    12    2
    20    28    30   ar
    21    28    29   ar
    22    16    17    1
    23    16    22    1
    24    17    18    1
    25    17    20    1
    26    93    91   ar
    27    93    92   ar
    28    19    18    2
    29    91    89   ar
    30    22    21    1
    31    92    90   ar
    32    20    21    1
    33    78    79   ar
    34    78    76   ar
    35    87    86    2
    36    81    79   ar
    37    81    83   ar
    38    86    85    1
    39    79    77   ar
    40    89    90   ar
    41    89    88    1
    42    76    75   ar
    43    83    82   ar
    44    77    75   ar
    45    77    80   ar
    46    75    74    1
    47    88    85    1
    48    85    84    1
    49    82    80   ar
    50    74    71    1
    51    48    49    1
    52    48    47    1
    53    53    52    2
    54    70    71    1
    55    70    60   am
    56    71    72    1
    57    57    55   ar
    58    54    55    1
    59    54    51    1
    60    59    60    1
    61    59    58    1
    62    59    62    1
    63    52    58   am
    64    52    51    1
    65    60    61    2
    66    72    73    2
    67    50    51    1
    68    55    56   ar
    69    62    63    1
    70    47    46    1
    71    46    43    1
    72    45    44    2
    73    41    39    1
    74    43    44    1
    75    43    42    1
    76    63    64   ar
    77    63    65   ar
    78    40    39    1
    79    39    38    2
    80    64    66   ar
    81    65    67   ar
    82    42    33   am
    83    34    33    2
    84    38    37    1
    85    33    32    1
    86    35    32    1
    87    35    36    1
    88    66    68   ar
    89    67    68   ar
    90    37    36    1
    91    32    31    1
    92    68    69    1
