@<TRIPOS>MOLECULE
tmp/2ri9A03.pdb
 144 137 0 0 0
SMALL
GASTEIGER

@<TRIPOS>ATOM
      1  N         23.8430   27.3970  -45.6200 N.3    86  PHE86      -0.1227
      2  CA        25.2740   27.6720  -45.8400 C.3    86  PHE86       0.1736
      3  C         26.1310   26.4160  -45.7140 C.2    86  PHE86       0.2595
      4  O         26.7580   26.0200  -46.6730 O.2    86  PHE86      -0.2718
      5  CB        25.7590   28.7320  -44.8500 C.3    86  PHE86       0.0547
      6  CG        27.2720   28.8650  -44.7580 C.ar   86  PHE86      -0.0202
      7  CD1       27.9360   28.5280  -43.5880 C.ar   86  PHE86      -0.0042
      8  CD2       28.0160   29.4090  -45.8090 C.ar   86  PHE86      -0.0042
      9  CE1       29.3290   28.7390  -43.4480 C.ar   86  PHE86      -0.0003
     10  CE2       29.4050   29.6250  -45.6720 C.ar   86  PHE86      -0.0003
     11  CZ        30.0470   29.2890  -44.4870 C.ar   86  PHE86      -0.0000
     12  N         26.1190   25.7650  -44.5510 N.am   87  GLU87      -0.1979
     13  CA        26.9420   24.5760  -44.3700 C.3    87  GLU87       0.1602
     14  C         26.5950   23.4400  -45.3200 C.2    87  GLU87       0.2287
     15  O         27.4840   22.7100  -45.7900 O.2    87  GLU87      -0.2864
     16  CB        26.8450   24.0650  -42.9200 C.3    87  GLU87       0.0415
     17  CG        27.3670   25.0210  -41.8440 C.3    87  GLU87       0.1163
     18  CD        28.8970   25.0730  -41.7840 C.2    87  GLU87       0.3649
     19  OE1       29.5300   24.2590  -42.4500 O.co2  87  GLU87      -0.2457
     20  OE2       29.4620   25.9220  -41.0680 O.co2  87  GLU87      -0.2457
     21  N         28.0810   24.5380  -48.8970 N.3    90  ILE90      -0.1231
     22  CA        29.5550   24.4670  -49.0730 C.3    90  ILE90       0.1692
     23  C         30.2230   23.1170  -48.8710 C.2    90  ILE90       0.2591
     24  O         31.3210   22.8800  -49.4320 O.2    90  ILE90      -0.2718
     25  CB        30.3010   25.4910  -48.1870 C.3    90  ILE90       0.0266
     26  CG1       30.1410   25.1340  -46.6980 C.3    90  ILE90       0.0019
     27  CG2       29.7750   26.8920  -48.4820 C.3    90  ILE90       0.0020
     28  CD1       31.0980   25.8790  -45.7770 C.3    90  ILE90       0.0001
     29  N         29.6190   22.2290  -48.0710 N.am   91  ARG91      -0.1980
     30  CA        30.2040   20.8840  -47.8630 C.3    91  ARG91       0.1597
     31  C         29.5720   19.8140  -48.8030 C.2    91  ARG91       0.2287
     32  O         30.2680   19.2290  -49.6490 O.2    91  ARG91      -0.2864
     33  CB        30.0530   20.4350  -46.3940 C.3    91  ARG91       0.0334
     34  CG        30.5120   21.4580  -45.3340 C.3    91  ARG91       0.0492
     35  CD        30.9260   20.8170  -43.9690 C.3    91  ARG91       0.2205
     36  NE        31.0480   21.8240  -42.9130 N.pl3  91  ARG91      -0.0865
     37  CZ        31.6740   21.6280  -41.7510 C.cat  91  ARG91       0.5346
     38  NH1       32.2660   20.4620  -41.4820 N.pl3  91  ARG91       0.1354
     39  NH2       31.6640   22.5700  -40.8310 N.pl3  91  ARG91       0.1354
     40  N         28.1100   36.5740  -44.6090 N.3   162  ALA162     -0.1231
     41  CA        28.7500   35.4080  -45.2190 C.3   162  ALA162      0.1694
     42  C         27.7340   34.3040  -45.6090 C.2   162  ALA162      0.2591
     43  O         27.8190   33.7140  -46.7110 O.2   162  ALA162     -0.2718
     44  CB        29.8250   34.8170  -44.2540 C.3   162  ALA162      0.0304
     45  N         26.7770   34.0210  -44.7260 N.am  163  VAL163     -0.1980
     46  CA        25.8290   32.9520  -45.0490 C.3   163  VAL163      0.1595
     47  C         24.9290   33.3340  -46.1960 C.2   163  VAL163      0.2287
     48  O         24.3590   32.4630  -46.8550 O.2   163  VAL163     -0.2864
     49  CB        25.0160   32.4480  -43.8010 C.3   163  VAL163      0.0276
     50  CG1       25.9980   31.8920  -42.7590 C.3   163  VAL163      0.0022
     51  CG2       24.1360   33.5610  -43.1930 C.3   163  VAL163      0.0022
     52  N         34.7580   35.8150  -38.9280 N.3   229  GLY229     -0.1210
     53  CA        33.6710   34.8490  -39.0600 C.3   229  GLY229      0.1956
     54  C         32.3210   35.5610  -39.0890 C.2   229  GLY229      0.2612
     55  O         32.0740   36.4780  -38.3110 O.2   229  GLY229     -0.2717
     56  N         31.4360   35.1300  -39.9790 N.am  230  GLY230     -0.1956
     57  CA        30.1400   35.7920  -40.1250 C.3   230  GLY230      0.1869
     58  C         30.1580   36.7200  -41.3550 C.2   230  GLY230      0.2309
     59  O         29.1070   36.9950  -41.9740 O.2   230  GLY230     -0.2863
     60  N         33.6300   37.0990  -43.5640 N.3   232  ASP232     -0.1225
     61  CA        34.6770   36.5440  -44.4370 C.3   232  ASP232      0.1805
     62  C         34.3900   36.0810  -45.8660 C.2   232  ASP232      0.2598
     63  O         34.7130   36.7950  -46.8120 O.2   232  ASP232     -0.2718
     64  CB        35.4280   35.4000  -43.7120 C.3   232  ASP232      0.1424
     65  CG        34.4900   34.3210  -43.0900 C.2   232  ASP232      0.3668
     66  OD1       34.9960   33.5540  -42.2290 O.co2 232  ASP232     -0.2456
     67  OD2       33.2830   34.2150  -43.4420 O.co2 232  ASP232     -0.2456
     68  N         33.8270   34.8780  -46.0320 N.am  233  SER233     -0.1952
     69  CA        33.6050   34.3460  -47.3720 C.3   233  SER233      0.1924
     70  C         32.7750   35.1770  -48.3740 C.2   233  SER233      0.2314
     71  O         32.7890   34.8820  -49.5510 O.2   233  SER233     -0.2863
     72  CB        33.0870   32.8920  -47.3090 C.3   233  SER233      0.2116
     73  OG        32.0370   32.7440  -46.3670 O.3   233  SER233     -0.2180
     74  N         40.1970   32.0820  -38.4890 N.3   295  LEU295     -0.1245
     75  CA        39.2790   32.1580  -39.6370 C.3   295  LEU295      0.1561
     76  C         39.6540   33.2710  -40.6310 C.2   295  LEU295      0.2260
     77  O         39.5660   33.1040  -41.8710 O.2   295  LEU295     -0.2867
     78  CB        37.8440   32.4610  -39.1560 C.3   295  LEU295      0.0270
     79  CG        37.0130   31.2550  -38.7740 C.3   295  LEU295      0.0019
     80  CD1       35.6660   31.6390  -38.1850 C.3   295  LEU295      0.0001
     81  CD2       36.8240   30.4780  -40.0500 C.3   295  LEU295      0.0001
     82  N         41.6390   23.6160  -38.1600 N.3   372  ARG372     -0.1231
     83  CA        41.3220   24.5810  -39.2160 C.3   372  ARG372      0.1679
     84  C         42.3660   24.6700  -40.3320 C.2   372  ARG372      0.2434
     85  O         43.5580   24.4600  -40.1060 O.2   372  ARG372     -0.2733
     86  CB        41.1270   25.9740  -38.6260 C.3   372  ARG372      0.0321
     87  CG        39.9920   26.1030  -37.6360 C.3   372  ARG372      0.0489
     88  CD        39.7760   27.5740  -37.2960 C.3   372  ARG372      0.2205
     89  NE        38.8180   27.7550  -36.2130 N.pl3 372  ARG372     -0.0865
     90  CZ        37.5140   27.5310  -36.3170 C.cat 372  ARG372      0.5346
     91  NH1       36.9960   27.1170  -37.4600 N.pl3 372  ARG372      0.1354
     92  NH2       36.7250   27.7340  -35.2720 N.pl3 372  ARG372      0.1354
     93  N         41.9200   24.9990  -41.5570 N.am  373  PRO373     -0.2718
     94  CA        42.7830   25.1250  -42.7250 C.3   373  PRO373      0.1535
     95  C         43.2170   26.4750  -43.2790 C.2   373  PRO373      0.2598
     96  O         44.0870   26.5180  -44.1620 O.2   373  PRO373     -0.2715
     97  CB        41.9720   24.3920  -43.7800 C.3   373  PRO373      0.0310
     98  CG        40.5750   24.9750  -43.5140 C.3   373  PRO373      0.0237
     99  CD        40.4960   25.0260  -41.9690 C.3   373  PRO373      0.0939
    100  N         42.6350   27.5600  -42.7900 N.am  374  GLU374     -0.1978
    101  CA        42.8850   28.8790  -43.3790 C.3   374  GLU374      0.1602
    102  C         44.3000   29.3840  -43.4870 C.2   374  GLU374      0.2287
    103  O         44.6290   30.1120  -44.4340 O.2   374  GLU374     -0.2864
    104  CB        42.0060   29.9410  -42.6730 C.3   374  GLU374      0.0415
    105  CG        40.4940   29.6600  -42.7600 C.3   374  GLU374      0.1163
    106  CD        39.9750   28.7280  -41.6800 C.2   374  GLU374      0.3649
    107  OE1       38.7920   28.2640  -41.7720 O.co2 374  GLU374     -0.2457
    108  OE2       40.7390   28.4800  -40.7280 O.co2 374  GLU374     -0.2457
    109  N         36.1380   18.9990  -42.4600 N.3   433  PHE433     -0.1241
    110  CA        37.1310   19.7750  -43.2240 C.3   433  PHE433      0.1605
    111  C         38.5950   19.3350  -43.0180 C.2   433  PHE433      0.2264
    112  O         39.5170   19.8020  -43.7320 O.2   433  PHE433     -0.2867
    113  CB        36.9350   21.2970  -43.0450 C.3   433  PHE433      0.0534
    114  CG        36.7370   21.7640  -41.6110 C.ar  433  PHE433     -0.0203
    115  CD1       37.7980   21.7880  -40.7050 C.ar  433  PHE433     -0.0042
    116  CD2       35.5220   22.3130  -41.2190 C.ar  433  PHE433     -0.0042
    117  CE1       37.6480   22.3660  -39.4450 C.ar  433  PHE433     -0.0003
    118  CE2       35.3630   22.8970  -39.9530 C.ar  433  PHE433     -0.0003
    119  CZ        36.4330   22.9290  -39.0620 C.ar  433  PHE433     -0.0000
    120  N         39.8810   19.9950  -46.5640 N.3   437  GLU437     -0.1245
    121  CA        40.8370   21.1070  -46.6240 C.3   437  GLU437      0.1567
    122  C         42.2400   20.9320  -46.0460 C.2   437  GLU437      0.2260
    123  O         43.2220   21.2190  -46.7080 O.2   437  GLU437     -0.2867
    124  CB        40.2290   22.3380  -45.9560 C.3   437  GLU437      0.0388
    125  CG        38.7960   22.7210  -46.4170 C.3   437  GLU437      0.1160
    126  CD        38.4790   24.1670  -46.0120 C.2   437  GLU437      0.3649
    127  OE1       37.5970   24.3480  -45.1480 O.co2 437  GLU437     -0.2457
    128  OE2       39.1460   25.1120  -46.5370 O.co2 437  GLU437     -0.2457
    129  N         34.7730   27.5310  -50.8040 N.3   466  THR466     -0.1203
    130  CA        35.3440   27.8480  -49.4960 C.3   466  THR466      0.1994
    131  C         35.6260   26.6170  -48.6010 C.2   466  THR466      0.2617
    132  O         36.1140   26.7650  -47.4970 O.2   466  THR466     -0.2717
    133  CB        34.4280   28.8890  -48.7650 C.3   466  THR466      0.1784
    134  OG1       35.1650   29.5900  -47.7330 O.3   466  THR466     -0.2211
    135  CG2       33.1900   28.2080  -48.1770 C.3   466  THR466      0.0376
    136  N         35.3020   25.4130  -49.0910 N.am  467  GLU467     -0.1979
    137  CA        35.5830   24.1700  -48.3470 C.3   467  GLU467      0.1602
    138  C         36.6710   23.3990  -49.1230 C.2   467  GLU467      0.2287
    139  O         36.7820   22.1960  -48.9810 O.2   467  GLU467     -0.2864
    140  CB        34.3060   23.2940  -48.2380 C.3   467  GLU467      0.0415
    141  CG        34.3890   22.0530  -47.3190 C.3   467  GLU467      0.1163
    142  CD        34.0670   22.3480  -45.8610 C.2   467  GLU467      0.3649
    143  OE1       33.8660   23.5190  -45.5140 O.co2 467  GLU467     -0.2457
    144  OE2       33.9820   21.4030  -45.0300 O.co2 467  GLU467     -0.2457
@<TRIPOS>BOND
     1   129   130    1
     2    32    31    2
     3    71    70    2
     4   130   133    1
     5   130   131    1
     6    24    23    2
     7   138   139    2
     8   138   137    1
     9   136   131   am
    10   136   137    1
    11    22    21    1
    12    22    23    1
    13    22    25    1
    14    23    29   am
    15    31    30    1
    16   133   135    1
    17   133   134    1
    18   131   132    2
    19    27    25    1
    20    70    69    1
    21   137   140    1
    22   140   141    1
    23    25    26    1
    24    29    30    1
    25    30    33    1
    26    69    72    1
    27    69    68    1
    28   141   142    1
    29    72    73    1
    30    48    47    2
    31    63    62    2
    32    43    42    2
    33   123   122    2
    34    26    28    1
    35     4     3    2
    36   121   120    1
    37   121   122    1
    38   121   124    1
    39   128   126   ar
    40   125   126    1
    41   125   124    1
    42    33    34    1
    43    47    46    1
    44    68    62   am
    45   126   127   ar
    46    62    61    1
    47   142   143   ar
    48   142   144   ar
    49     2     3    1
    50     2     1    1
    51     2     5    1
    52     8    10   ar
    53     8     6   ar
    54    15    14    2
    55     3    12   am
    56    10    11   ar
    57    42    41    1
    58    42    45   am
    59    34    35    1
    60    14    13    1
    61    41    40    1
    62    41    44    1
    63    46    45    1
    64    46    49    1
    65     5     6    1
    66     6     7   ar
    67    12    13    1
    68    11     9   ar
    69    61    64    1
    70    61    60    1
    71   103   102    2
    72    13    16    1
    73    96    95    2
    74    35    36    1
    75    49    51    1
    76    49    50    1
    77    97    98    1
    78    97    94    1
    79   112   111    2
    80    64    65    1
    81     7     9   ar
    82    98    99    1
    83   102   101    1
    84    67    65   ar
    85   101   100    1
    86   101   104    1
    87    95   100   am
    88    95    94    1
    89   110   113    1
    90   110   111    1
    91   110   109    1
    92    65    66   ar
    93   113   114    1
    94    16    17    1
    95    36    37    2
    96   105   104    1
    97   105   106    1
    98    94    93    1
    99    19    18   ar
   100    59    58    2
   101    99    93    1
   102    77    76    2
   103    17    18    1
   104    18    20   ar
   105   107   106   ar
   106    37    38    1
   107    37    39    1
   108   106   108   ar
   109   114   116   ar
   110   114   115   ar
   111    93    84   am
   112    58    57    1
   113   116   118   ar
   114   115   117   ar
   115    76    75    1
   116    84    85    2
   117    84    83    1
   118    57    56    1
   119    81    79    1
   120    56    54   am
   121   118   119   ar
   122    75    78    1
   123    75    74    1
   124   117   119   ar
   125    83    86    1
   126    83    82    1
   127    78    79    1
   128    54    53    1
   129    54    55    2
   130    53    52    1
   131    79    80    1
   132    86    87    1
   133    87    88    1
   134    91    90    1
   135    88    89    1
   136    90    89    2
   137    90    92    1
