@<TRIPOS>MOLECULE
tmp/2rifA00.pdb
 166 164 0 0 0
SMALL
GASTEIGER

@<TRIPOS>ATOM
      1  N         29.3160    9.9330   15.5730 N.3     6  LEU6       -0.1231
      2  CA        29.8360    8.5630   15.6580 C.3     6  LEU6        0.1693
      3  C         29.7450    7.8100   14.3250 C.2     6  LEU6        0.2592
      4  O         30.1510    6.6530   14.2440 O.2     6  LEU6       -0.2718
      5  CB        29.1080    7.7700   16.7510 C.3     6  LEU6        0.0284
      6  CG        29.2830    8.2540   18.1920 C.3     6  LEU6        0.0019
      7  CD1       28.5110    7.3550   19.1430 C.3     6  LEU6        0.0001
      8  CD2       30.7530    8.3050   18.5830 C.3     6  LEU6        0.0001
      9  N         29.2060    8.4580   13.2920 N.am    7  LEU7       -0.1966
     10  CA        29.1730    7.8740   11.9470 C.3     7  LEU7        0.1728
     11  C         30.5500    7.9720   11.2950 C.2     7  LEU7        0.2616
     12  O         31.1470    9.0510   11.2570 O.2     7  LEU7       -0.2715
     13  CB        28.1340    8.5770   11.0620 C.3     7  LEU7        0.0311
     14  CG        26.7530    7.9230   10.9670 C.3     7  LEU7        0.0022
     15  CD1       26.8470    6.6150   10.1950 C.3     7  LEU7        0.0001
     16  CD2       26.1450    7.6950   12.3400 C.3     7  LEU7        0.0001
     17  N         31.0470    6.8450   10.7870 N.am    8  LYS8       -0.1963
     18  CA        32.3520    6.7990   10.1160 C.3     8  LYS8        0.1728
     19  C         32.3230    6.1050    8.7460 C.2     8  LYS8        0.2616
     20  O         33.3760    5.9040    8.1360 O.2     8  LYS8       -0.2715
     21  CB        33.3910    6.1130   11.0180 C.3     8  LYS8        0.0311
     22  CG        33.0040    4.7100   11.5050 C.3     8  LYS8        0.0038
     23  CD        32.3770    4.7300   12.8940 C.3     8  LYS8        0.0206
     24  CE        33.4260    4.9120   13.9890 C.3     8  LYS8        0.1093
     25  NZ        32.8330    4.8390   15.3530 N.3     8  LYS8       -0.1314
     26  N         31.1330    5.7580    8.2530 N.am    9  ARG9       -0.1964
     27  CA        31.0120    4.9920    7.0120 C.3     9  ARG9        0.1714
     28  C         29.6930    5.2690    6.2860 C.2     9  ARG9        0.2458
     29  O         28.6670    5.4830    6.9350 O.2     9  ARG9       -0.2730
     30  CB        31.1140    3.5000    7.3320 C.3     9  ARG9        0.0347
     31  CG        31.2910    2.5860    6.1210 C.3     9  ARG9        0.0492
     32  CD        31.2250    1.0990    6.4850 C.3     9  ARG9        0.2205
     33  NE        31.9580    0.7710    7.7110 N.pl3   9  ARG9       -0.0865
     34  CZ        32.3830   -0.4460    8.0430 C.cat   9  ARG9        0.5346
     35  NH1       32.1620   -1.4940    7.2540 N.pl3   9  ARG9        0.1354
     36  NH2       33.0410   -0.6170    9.1850 N.pl3   9  ARG9        0.1354
     37  N         29.7150    5.2710    4.9360 N.am   10  PRO10      -0.2716
     38  CA        28.4620    5.3910    4.1900 C.3    10  PRO10       0.1521
     39  C         27.5780    4.1550    4.3830 C.2    10  PRO10       0.2440
     40  O         28.1050    3.0460    4.4890 O.2    10  PRO10      -0.2731
     41  CB        28.9150    5.4930    2.7270 C.3    10  PRO10       0.0310
     42  CG        30.3570    5.8020    2.7670 C.3    10  PRO10       0.0237
     43  CD        30.8860    5.2490    4.0410 C.3    10  PRO10       0.0939
     44  N         26.2450    4.3410    4.4070 N.am   11  PRO11      -0.2716
     45  CA        25.3190    3.2430    4.6990 C.3    11  PRO11       0.1536
     46  C         25.4240    2.0640    3.7290 C.2    11  PRO11       0.2598
     47  O         25.4010    2.2580    2.5130 O.2    11  PRO11      -0.2715
     48  CB        23.9390    3.9050    4.5940 C.3    11  PRO11       0.0310
     49  CG        24.1490    5.1130    3.7630 C.3    11  PRO11       0.0237
     50  CD        25.5300    5.5860    4.0750 C.3    11  PRO11       0.0939
     51  N         25.5510    0.8590    4.2800 N.am   12  VAL12      -0.1978
     52  CA        25.5500   -0.3710    3.4990 C.3    12  VAL12       0.1596
     53  C         24.0980   -0.7650    3.2690 C.2    12  VAL12       0.2287
     54  O         23.3790   -1.0730    4.2210 O.2    12  VAL12      -0.2864
     55  CB        26.2740   -1.5120    4.2400 C.3    12  VAL12       0.0276
     56  CG1       26.1300   -2.8250    3.4810 C.3    12  VAL12       0.0022
     57  CG2       27.7420   -1.1610    4.4460 C.3    12  VAL12       0.0022
     58  N         31.8100   -6.4290    5.6100 N.3    31  ARG31      -0.1231
     59  CA        32.1540   -6.8840    6.9640 C.3    31  ARG31       0.1694
     60  C         31.3120   -6.1920    8.0420 C.2    31  ARG31       0.2592
     61  O         31.8410   -5.6150    8.9970 O.2    31  ARG31      -0.2718
     62  CB        33.6560   -6.7230    7.2360 C.3    31  ARG31       0.0321
     63  CG        34.5170   -7.5980    6.3450 C.3    31  ARG31       0.0489
     64  CD        35.9890   -7.5000    6.6950 C.3    31  ARG31       0.2205
     65  NE        36.8000   -8.3490    5.8230 N.pl3  31  ARG31      -0.0865
     66  CZ        36.9590   -9.6660    5.9650 C.cat  31  ARG31       0.5346
     67  NH1       36.3650  -10.3290    6.9550 N.pl3  31  ARG31       0.1354
     68  NH2       37.7220  -10.3310    5.1040 N.pl3  31  ARG31       0.1354
     69  N         29.9950   -6.2670    7.8690 N.am   32  VAL32      -0.1966
     70  CA        29.0420   -5.6770    8.8030 C.3    32  VAL32       0.1727
     71  C         27.9660   -6.6990    9.1730 C.2    32  VAL32       0.2617
     72  O         27.8080   -7.7240    8.5050 O.2    32  VAL32      -0.2715
     73  CB        28.3850   -4.4090    8.2150 C.3    32  VAL32       0.0290
     74  CG1       29.4430   -3.3460    7.9390 C.3    32  VAL32       0.0023
     75  CG2       27.6080   -4.7390    6.9470 C.3    32  VAL32       0.0023
     76  N         27.2320   -6.4080   10.2410 N.am   33  GLY33      -0.1940
     77  CA        26.2260   -7.3250   10.7640 C.3    33  GLY33       0.2014
     78  C         24.8190   -7.0640   10.2620 C.2    33  GLY33       0.2639
     79  O         23.9560   -7.9330   10.3710 O.2    33  GLY33      -0.2714
     80  N         24.5900   -5.8740    9.7110 N.am   34  LEU34      -0.1963
     81  CA        23.2600   -5.4590    9.2730 C.3    34  LEU34       0.1728
     82  C         23.3170   -4.8090    7.8950 C.2    34  LEU34       0.2616
     83  O         24.3240   -4.2040    7.5270 O.2    34  LEU34      -0.2715
     84  CB        22.6770   -4.4630   10.2780 C.3    34  LEU34       0.0311
     85  CG        21.1910   -4.1060   10.1680 C.3    34  LEU34       0.0022
     86  CD1       20.3450   -5.0620   11.0040 C.3    34  LEU34       0.0001
     87  CD2       20.9580   -2.6700   10.6110 C.3    34  LEU34       0.0001
     88  N         22.2320   -4.9580    7.1370 N.am   35  ALA35      -0.1963
     89  CA        22.0740   -4.2980    5.8430 C.3    35  ALA35       0.1728
     90  C         20.7030   -3.6400    5.7890 C.2    35  ALA35       0.2616
     91  O         19.7000   -4.2580    6.1430 O.2    35  ALA35      -0.2715
     92  CB        22.2210   -5.3020    4.7150 C.3    35  ALA35       0.0334
     93  N         20.6650   -2.3840    5.3530 N.am   36  VAL36      -0.1977
     94  CA        19.4130   -1.6400    5.2420 C.3    36  VAL36       0.1596
     95  C         18.7950   -1.8760    3.8690 C.2    36  VAL36       0.2287
     96  O         19.4580   -1.7020    2.8520 O.2    36  VAL36      -0.2864
     97  CB        19.6400   -0.1230    5.4220 C.3    36  VAL36       0.0276
     98  CG1       18.3150    0.6220    5.3830 C.3    36  VAL36       0.0022
     99  CG2       20.3740    0.1600    6.7290 C.3    36  VAL36       0.0022
    100  N         22.5950  -10.4960    9.8050 N.3    52  GLU52      -0.1245
    101  CA        23.1560  -11.8420    9.6890 C.3    52  GLU52       0.1567
    102  C         22.4220  -12.8490   10.5880 C.2    52  GLU52       0.2260
    103  O         22.4190  -14.0490   10.3130 O.2    52  GLU52      -0.2867
    104  CB        24.6360  -11.8100   10.0570 C.3    52  GLU52       0.0388
    105  CG        24.8930  -11.3820   11.4980 C.3    52  GLU52       0.1160
    106  CD        26.3240  -11.0010   11.7400 C.2    52  GLU52       0.3649
    107  OE1       26.5740  -10.2570   12.7050 O.co2  52  GLU52      -0.2457
    108  OE2       27.1940  -11.4360   10.9610 O.co2  52  GLU52      -0.2457
    109  N         21.9430   -2.8080   16.5320 N.3    99  HIS99      -0.1241
    110  CA        22.0340   -1.7750   15.4980 C.3    99  HIS99       0.1621
    111  C         20.8650   -0.8040   15.5920 C.2    99  HIS99       0.2264
    112  O         19.7860   -1.1610   16.0700 O.2    99  HIS99      -0.2867
    113  CB        22.0320   -2.3920   14.0940 C.3    99  HIS99       0.0745
    114  CG        23.2160   -3.2590   13.8040 C.ar   99  HIS99       0.0817
    115  ND1       23.2540   -4.5980   14.1300 N.ar   99  HIS99      -0.2268
    116  CD2       24.3970   -2.9840   13.2010 C.ar   99  HIS99       0.1154
    117  CE1       24.4110   -5.1070   13.7490 C.ar   99  HIS99       0.1986
    118  NE2       25.1240   -4.1490   13.1830 N.ar   99  HIS99      -0.2212
    119  N         24.1670    4.0020    9.6920 N.3   112  VAL112     -0.1231
    120  CA        23.7880    2.9650   10.6450 C.3   112  VAL112      0.1692
    121  C         24.7830    2.9300   11.7970 C.2   112  VAL112      0.2592
    122  O         25.9930    2.9140   11.5830 O.2   112  VAL112     -0.2718
    123  CB        23.7440    1.5810    9.9760 C.3   112  VAL112      0.0266
    124  CG1       23.6050    0.4720   11.0220 C.3   112  VAL112      0.0020
    125  CG2       22.6130    1.5160    8.9580 C.3   112  VAL112      0.0020
    126  N         24.2560    2.9160   13.0160 N.am  113  LEU113     -0.1966
    127  CA        25.0690    2.8680   14.2200 C.3   113  LEU113      0.1728
    128  C         24.9750    1.4610   14.8030 C.2   113  LEU113      0.2617
    129  O         23.9470    0.7950   14.6640 O.2   113  LEU113     -0.2715
    130  CB        24.5630    3.9040   15.2260 C.3   113  LEU113      0.0311
    131  CG        25.5860    4.5730   16.1390 C.3   113  LEU113      0.0022
    132  CD1       26.6360    5.3220   15.3280 C.3   113  LEU113      0.0001
    133  CD2       24.8710    5.5150   17.0940 C.3   113  LEU113      0.0001
    134  N         26.0490    1.0230   15.4540 N.am  114  SER114     -0.1936
    135  CA        26.1410   -0.3260   16.0100 C.3   114  SER114      0.2055
    136  C         26.5200   -0.2900   17.4850 C.2   114  SER114      0.2643
    137  O         27.1200    0.6740   17.9580 O.2   114  SER114     -0.2714
    138  CB        27.1840   -1.1330   15.2270 C.3   114  SER114      0.2130
    139  OG        27.5830   -2.3020   15.9210 O.3   114  SER114     -0.2179
    140  N         26.1770   -1.3580   18.2030 N.am  115  ILE115     -0.1963
    141  CA        26.5790   -1.5190   19.6040 C.3   115  ILE115      0.1727
    142  C         28.1110   -1.4910   19.7420 C.2   115  ILE115      0.2616
    143  O         28.6450   -1.1590   20.7980 O.2   115  ILE115     -0.2715
    144  CB        26.0150   -2.8360   20.1980 C.3   115  ILE115      0.0290
    145  CG1       26.1210   -2.8380   21.7240 C.3   115  ILE115      0.0022
    146  CG2       26.7330   -4.0470   19.6100 C.3   115  ILE115      0.0023
    147  CD1       25.3700   -3.9760   22.3750 C.3   115  ILE115      0.0001
    148  N         28.8010   -1.8460   18.6610 N.am  116  ARG116     -0.1963
    149  CA        30.2590   -1.7920   18.5920 C.3   116  ARG116      0.1729
    150  C         30.7780   -0.3510   18.7210 C.2   116  ARG116      0.2616
    151  O         31.8380   -0.1170   19.3030 O.2   116  ARG116     -0.2715
    152  CB        30.7230   -2.4050   17.2640 C.3   116  ARG116      0.0348
    153  CG        32.0930   -3.0390   17.2960 C.3   116  ARG116      0.0492
    154  CD        32.4840   -3.5580   15.9190 C.3   116  ARG116      0.2205
    155  NE        31.6210   -4.6510   15.4660 N.pl3 116  ARG116     -0.0865
    156  CZ        31.8060   -5.9470   15.7240 C.cat 116  ARG116      0.5346
    157  NH1       32.8360   -6.3700   16.4530 N.pl3 116  ARG116      0.1354
    158  NH2       30.9440   -6.8390   15.2460 N.pl3 116  ARG116      0.1354
    159  N         30.0200    0.6060   18.1830 N.am  117  ASP117     -0.1971
    160  CA        30.3910    2.0270   18.2210 C.3   117  ASP117      0.1709
    161  C         30.2800    2.6400   19.6160 C.2   117  ASP117      0.2293
    162  O         31.0900    3.4880   19.9920 O.2   117  ASP117     -0.2864
    163  CB        29.5030    2.8450   17.2760 C.3   117  ASP117      0.1436
    164  CG        29.6110    2.4020   15.8330 C.2   117  ASP117      0.3671
    165  OD1       30.7410    2.1370   15.3680 O.co2 117  ASP117     -0.2456
    166  OD2       28.5600    2.3320   15.1590 O.co2 117  ASP117     -0.2456
@<TRIPOS>BOND
     1    47    46    2
     2    41    42    1
     3    41    38    1
     4    42    43    1
     5    96    95    2
     6    53    52    1
     7    53    54    2
     8    56    55    1
     9    52    55    1
    10    52    51    1
    11    46    51   am
    12    46    45    1
    13    49    50    1
    14    49    48    1
    15    95    94    1
    16    43    37    1
    17    50    44    1
    18    38    39    1
    19    38    37    1
    20    55    57    1
    21    39    44   am
    22    39    40    2
    23    44    45    1
    24    48    45    1
    25    92    89    1
    26    37    28   am
    27    68    66    1
    28    94    93    1
    29    94    97    1
    30    93    90   am
    31    98    97    1
    32    97    99    1
    33    58    59    1
    34    90    89    1
    35    90    91    2
    36    65    66    2
    37    65    64    1
    38    89    88    1
    39    66    67    1
    40    31    32    1
    41    31    30    1
    42    28    29    2
    43    28    27    1
    44    63    64    1
    45    63    62    1
    46    32    33    1
    47    75    73    1
    48    59    62    1
    49    59    60    1
    50    27    30    1
    51    27    26    1
    52    88    82   am
    53    35    34    1
    54    83    82    2
    55    33    34    2
    56    69    60   am
    57    69    70    1
    58    82    81    1
    59    74    73    1
    60    60    61    2
    61    34    36    1
    62    20    19    2
    63    73    70    1
    64    26    19   am
    65    72    71    2
    66    19    18    1
    67    70    71    1
    68   125   123    1
    69    71    76   am
    70    81    80    1
    71    81    84    1
    72   101   100    1
    73   101   104    1
    74   101   102    1
    75   119   120    1
    76    80    78   am
    77   123   120    1
    78   123   124    1
    79   104   105    1
    80    18    17    1
    81    18    21    1
    82    85    84    1
    83    85    87    1
    84    85    86    1
    85    15    14    1
    86    76    77    1
    87    78    79    2
    88    78    77    1
    89   103   102    2
    90   120   121    1
    91    17    11   am
    92   108   106   ar
    93    14    13    1
    94    14    16    1
    95    21    22    1
    96    13    10    1
    97    12    11    2
    98    11    10    1
    99   105   106    1
   100    22    23    1
   101   122   121    2
   102   106   107   ar
   103   121   126   am
   104    10     9    1
   105    23    24    1
   106   126   127    1
   107   118   116   ar
   108   118   117   ar
   109   116   114   ar
   110     9     3   am
   111   117   115   ar
   112   114   113    1
   113   114   115   ar
   114    24    25    1
   115   113   110    1
   116   127   128    1
   117   127   130    1
   118     4     3    2
   119     3     2    1
   120   129   128    2
   121   128   134   am
   122   166   164   ar
   123   130   131    1
   124   138   139    1
   125   138   135    1
   126   158   156    1
   127   132   131    1
   128   165   164   ar
   129   134   135    1
   130   155   156    2
   131   155   154    1
   132   110   111    1
   133   110   109    1
   134     1     2    1
   135   111   112    2
   136     2     5    1
   137   156   157    1
   138   164   163    1
   139   154   153    1
   140   135   136    1
   141   131   133    1
   142     5     6    1
   143   152   153    1
   144   152   149    1
   145   163   160    1
   146   136   137    2
   147   136   140   am
   148   159   160    1
   149   159   150   am
   150     6     8    1
   151     6     7    1
   152   140   141    1
   153   160   161    1
   154   149   148    1
   155   149   150    1
   156   148   142   am
   157   150   151    2
   158   141   142    1
   159   141   144    1
   160   146   144    1
   161   161   162    2
   162   142   143    2
   163   144   145    1
   164   145   147    1
