@<TRIPOS>MOLECULE
tmp/2rifA01.pdb
 144 140 0 0 0
SMALL
GASTEIGER

@<TRIPOS>ATOM
      1  N         27.2320   -6.4080   10.2410 N.3    33  GLY33      -0.1210
      2  CA        26.2260   -7.3250   10.7640 C.3    33  GLY33       0.1956
      3  C         24.8190   -7.0640   10.2620 C.2    33  GLY33       0.2611
      4  O         23.9560   -7.9330   10.3710 O.2    33  GLY33      -0.2717
      5  N         24.5900   -5.8740    9.7110 N.am   34  LEU34      -0.1979
      6  CA        23.2600   -5.4590    9.2730 C.3    34  LEU34       0.1596
      7  C         23.3170   -4.8090    7.8950 C.2    34  LEU34       0.2287
      8  O         24.3240   -4.2040    7.5270 O.2    34  LEU34      -0.2864
      9  CB        22.6770   -4.4630   10.2780 C.3    34  LEU34       0.0297
     10  CG        21.1910   -4.1060   10.1680 C.3    34  LEU34       0.0022
     11  CD1       20.3450   -5.0620   11.0040 C.3    34  LEU34       0.0001
     12  CD2       20.9580   -2.6700   10.6110 C.3    34  LEU34       0.0001
     13  N         15.3390   -3.7090    7.4380 N.3    49  VAL49      -0.1245
     14  CA        16.7140   -4.0810    7.7460 C.3    49  VAL49       0.1561
     15  C         16.8360   -5.5990    7.7860 C.2    49  VAL49       0.2260
     16  O         15.8900   -6.2990    8.1660 O.2    49  VAL49      -0.2867
     17  CB        17.1910   -3.5030    9.0970 C.3    49  VAL49       0.0252
     18  CG1       17.2240   -1.9870    9.0450 C.3    49  VAL49       0.0019
     19  CG2       16.3100   -3.9960   10.2440 C.3    49  VAL49       0.0019
     20  N         19.6300   -8.4860    9.2020 N.3    51  SER51      -0.1202
     21  CA        20.8570   -8.8310    9.9130 C.3    51  SER51       0.2020
     22  C         21.3250  -10.2270    9.5330 C.2    51  SER51       0.2619
     23  O         20.5560  -11.0380    9.0160 O.2    51  SER51      -0.2717
     24  CB        20.6380   -8.7750   11.4280 C.3    51  SER51       0.2103
     25  OG        21.7200   -9.3740   12.1240 O.3    51  SER51      -0.2182
     26  N         22.5950  -10.4960    9.8050 N.am   52  GLU52      -0.1965
     27  CA        23.1560  -11.8420    9.6890 C.3    52  GLU52       0.1733
     28  C         22.4220  -12.8490   10.5880 C.2    52  GLU52       0.2616
     29  O         22.4190  -14.0490   10.3130 O.2    52  GLU52      -0.2715
     30  CB        24.6360  -11.8100   10.0570 C.3    52  GLU52       0.0429
     31  CG        24.8930  -11.3820   11.4980 C.3    52  GLU52       0.1163
     32  CD        26.3240  -11.0010   11.7400 C.2    52  GLU52       0.3649
     33  OE1       26.5740  -10.2570   12.7050 O.co2  52  GLU52      -0.2457
     34  OE2       27.1940  -11.4360   10.9610 O.co2  52  GLU52      -0.2457
     35  N         21.8310  -12.3500   11.6720 N.am   53  ARG53      -0.1963
     36  CA        20.9610  -13.1440   12.5440 C.3    53  ARG53       0.1729
     37  C         19.7490  -13.6700   11.7740 C.2    53  ARG53       0.2616
     38  O         19.3260  -14.8070   11.9830 O.2    53  ARG53      -0.2715
     39  CB        20.4990  -12.2790   13.7210 C.3    53  ARG53       0.0348
     40  CG        19.4650  -12.9070   14.6790 C.3    53  ARG53       0.0492
     41  CD        20.0400  -13.7960   15.7880 C.3    53  ARG53       0.2205
     42  NE        21.2110  -13.2230   16.4680 N.pl3  53  ARG53      -0.0865
     43  CZ        21.4490  -13.2730   17.7790 C.cat  53  ARG53       0.5346
     44  NH1       20.5820  -13.8230   18.6300 N.pl3  53  ARG53       0.1354
     45  NH2       22.5650  -12.7260   18.2470 N.pl3  53  ARG53       0.1354
     46  N         19.1890  -12.8370   10.8960 N.am   54  ASP54      -0.1971
     47  CA        18.0240  -13.2230   10.0900 C.3    54  ASP54       0.1709
     48  C         18.4270  -14.2580    9.0440 C.2    54  ASP54       0.2293
     49  O         17.6980  -15.2140    8.7940 O.2    54  ASP54      -0.2864
     50  CB        17.3990  -12.0090    9.3950 C.3    54  ASP54       0.1436
     51  CG        16.9900  -10.9200   10.3680 C.2    54  ASP54       0.3671
     52  OD1       16.2820  -11.2210   11.3520 O.co2  54  ASP54      -0.2456
     53  OD2       17.3720   -9.7560   10.1410 O.co2  54  ASP54      -0.2456
     54  N         18.7980  -17.7250   10.6580 N.3    57  ARG57      -0.1245
     55  CA        17.5240  -18.4360   10.7930 C.3    57  ARG57       0.1563
     56  C         17.0730  -19.0170    9.4560 C.2    57  ARG57       0.2260
     57  O         16.5210  -20.1170    9.4070 O.2    57  ARG57      -0.2867
     58  CB        16.4350  -17.5200   11.3470 C.3    57  ARG57       0.0307
     59  CG        16.7260  -16.9930   12.7370 C.3    57  ARG57       0.0489
     60  CD        15.4610  -16.5220   13.4210 C.3    57  ARG57       0.2205
     61  NE        15.7330  -15.6180   14.5400 N.pl3  57  ARG57      -0.0865
     62  CZ        15.7450  -14.2860   14.4670 C.cat  57  ARG57       0.5346
     63  NH1       16.0040  -13.5720   15.5580 N.pl3  57  ARG57       0.1354
     64  NH2       15.5030  -13.6550   13.3180 N.pl3  57  ARG57       0.1354
     65  N         13.1530   -6.7680    8.8810 N.3    74  ASN74      -0.1225
     66  CA        12.4010   -6.1050    9.9540 C.3    74  ASN74       0.1785
     67  C         12.1480   -4.6290    9.6750 C.2    74  ASN74       0.2598
     68  O         12.9220   -3.9840    8.9680 O.2    74  ASN74      -0.2718
     69  CB        13.1610   -6.2180   11.2780 C.3    74  ASN74       0.1169
     70  CG        12.9010   -7.5220   11.9930 C.2    74  ASN74       0.2627
     71  OD1       11.7490   -7.8990   12.2160 O.2    74  ASN74      -0.2716
     72  ND2       13.9680   -8.2180   12.3700 N.am   74  ASN74      -0.0877
     73  N         11.0710   -4.1010   10.2550 N.am   75  SER75      -0.1938
     74  CA        10.7460   -2.6780   10.1580 C.3    75  SER75       0.2040
     75  C         11.8310   -1.8690   10.8700 C.2    75  SER75       0.2485
     76  O         12.1180   -2.1340   12.0340 O.2    75  SER75      -0.2729
     77  CB         9.3840   -2.3950   10.7990 C.3    75  SER75       0.2129
     78  OG         8.9530   -1.0730   10.5240 O.3    75  SER75      -0.2179
     79  N         12.4250   -0.8730   10.1870 N.am   76  PRO76      -0.2715
     80  CA        13.5940   -0.1910   10.7480 C.3    76  PRO76       0.1536
     81  C         13.3420    0.5800   12.0470 C.2    76  PRO76       0.2598
     82  O         12.4590    1.4360   12.0960 O.2    76  PRO76      -0.2715
     83  CB        14.0040    0.7880    9.6360 C.3    76  PRO76       0.0310
     84  CG        13.2640    0.3680    8.4270 C.3    76  PRO76       0.0237
     85  CD        12.0130   -0.2670    8.9100 C.3    76  PRO76       0.0939
     86  N         14.1230    0.2640   13.0810 N.am   77  ILE77      -0.1978
     87  CA        14.1140    1.0160   14.3320 C.3    77  ILE77       0.1596
     88  C         15.1410    2.1280   14.1680 C.2    77  ILE77       0.2287
     89  O         16.3340    1.8600   14.0500 O.2    77  ILE77      -0.2864
     90  CB        14.4790    0.1320   15.5380 C.3    77  ILE77       0.0276
     91  CG1       13.4450   -0.9840   15.7020 C.3    77  ILE77       0.0022
     92  CG2       14.5540    0.9670   16.8120 C.3    77  ILE77       0.0022
     93  CD1       13.7600   -1.9670   16.8220 C.3    77  ILE77       0.0001
     94  N         16.4840   -5.1590   22.3810 N.3    96  ASN96      -0.1225
     95  CA        17.4130   -6.2760   22.2580 C.3    96  ASN96       0.1785
     96  C         17.9770   -6.3800   20.8380 C.2    96  ASN96       0.2597
     97  O         17.9170   -7.4320   20.2040 O.2    96  ASN96      -0.2718
     98  CB        16.7210   -7.5800   22.6810 C.3    96  ASN96       0.1169
     99  CG        17.6970   -8.6360   23.1540 C.2    96  ASN96       0.2627
    100  OD1       18.5340   -8.3780   24.0190 O.2    96  ASN96      -0.2716
    101  ND2       17.5800   -9.8400   22.6060 N.am   96  ASN96      -0.0877
    102  N         18.5040   -5.2610   20.3450 N.am   97  ILE97      -0.1966
    103  CA        19.1380   -5.1950   19.0260 C.3    97  ILE97       0.1727
    104  C         20.5250   -4.5760   19.1690 C.2    97  ILE97       0.2616
    105  O         20.7990   -3.8740   20.1440 O.2    97  ILE97      -0.2715
    106  CB        18.2890   -4.3920   17.9960 C.3    97  ILE97       0.0290
    107  CG1       18.0350   -2.9560   18.4710 C.3    97  ILE97       0.0022
    108  CG2       16.9660   -5.1050   17.7250 C.3    97  ILE97       0.0023
    109  CD1       17.1470   -2.1510   17.5440 C.3    97  ILE97       0.0001
    110  N         21.3980   -4.8470   18.2030 N.am   98  ARG98      -0.1963
    111  CA        22.7680   -4.3410   18.2350 C.3    98  ARG98       0.1729
    112  C         23.0200   -3.3160   17.1290 C.2    98  ARG98       0.2616
    113  O         24.1720   -2.9910   16.8270 O.2    98  ARG98      -0.2715
    114  CB        23.7530   -5.5060   18.1250 C.3    98  ARG98       0.0348
    115  CG        23.6530   -6.5020   19.2860 C.3    98  ARG98       0.0492
    116  CD        24.5250   -7.7430   19.0890 C.3    98  ARG98       0.2205
    117  NE        24.1130   -8.5180   17.9200 N.pl3  98  ARG98      -0.0865
    118  CZ        24.6020   -9.7100   17.5870 C.cat  98  ARG98       0.5346
    119  NH1       25.5430  -10.2990   18.3200 N.pl3  98  ARG98       0.1354
    120  NH2       24.1460  -10.3130   16.4960 N.pl3  98  ARG98       0.1354
    121  N         21.9430   -2.8080   16.5320 N.am   99  HIS99      -0.1959
    122  CA        22.0340   -1.7750   15.4980 C.3    99  HIS99       0.1787
    123  C         20.8650   -0.8040   15.5920 C.2    99  HIS99       0.2620
    124  O         19.7860   -1.1610   16.0700 O.2    99  HIS99      -0.2715
    125  CB        22.0320   -2.3920   14.0940 C.3    99  HIS99       0.0785
    126  CG        23.2160   -3.2590   13.8040 C.ar   99  HIS99       0.0821
    127  ND1       23.2540   -4.5980   14.1300 N.ar   99  HIS99      -0.2267
    128  CD2       24.3970   -2.9840   13.2010 C.ar   99  HIS99       0.1154
    129  CE1       24.4110   -5.1070   13.7490 C.ar   99  HIS99       0.1986
    130  NE2       25.1240   -4.1490   13.1830 N.ar   99  HIS99      -0.2212
    131  N         21.0930    0.4230   15.1310 N.am  100  VAL100     -0.1963
    132  CA        20.0330    1.4180   14.9680 C.3   100  VAL100      0.1727
    133  C         20.2890    2.2020   13.6800 C.2   100  VAL100      0.2616
    134  O         21.4160    2.6270   13.4170 O.2   100  VAL100     -0.2715
    135  CB        19.9430    2.3940   16.1660 C.3   100  VAL100      0.0290
    136  CG1       19.4830    1.6650   17.4170 C.3   100  VAL100      0.0023
    137  CG2       21.2730    3.0860   16.4060 C.3   100  VAL100      0.0023
    138  N         19.2410    2.3780   12.8820 N.am  101  VAL101     -0.1977
    139  CA        19.3440    3.0670   11.6000 C.3   101  VAL101      0.1596
    140  C         19.2500    4.5740   11.8110 C.2   101  VAL101      0.2287
    141  O         18.2170    5.0810   12.2430 O.2   101  VAL101     -0.2864
    142  CB        18.2240    2.6300   10.6330 C.3   101  VAL101      0.0276
    143  CG1       18.3580    3.3540    9.2970 C.3   101  VAL101      0.0022
    144  CG2       18.2470    1.1200   10.4330 C.3   101  VAL101      0.0022
@<TRIPOS>BOND
     1    13    14    1
     2     8     7    2
     3    14    15    1
     4    14    17    1
     5    15    16    2
     6     7     6    1
     7    84    85    1
     8    84    83    1
     9    49    48    2
    10    65    66    1
    11    85    79    1
    12    68    67    2
    13    23    22    2
    14    48    47    1
    15    18    17    1
    16    17    19    1
    17    20    21    1
    18     6     5    1
    19     6     9    1
    20   143   142    1
    21    50    47    1
    22    50    51    1
    23    57    56    2
    24    56    55    1
    25    22    26   am
    26    22    21    1
    27    83    80    1
    28    67    66    1
    29    67    73   am
    30    27    26    1
    31    27    30    1
    32    27    28    1
    33     5     3   am
    34    21    24    1
    35    66    69    1
    36    30    31    1
    37    47    46    1
    38    53    51   ar
    39    74    73    1
    40    74    77    1
    41    74    75    1
    42    10     9    1
    43    10    12    1
    44    10    11    1
    45    79    80    1
    46    79    75   am
    47     1     2    1
    48     3     4    2
    49     3     2    1
    50    29    28    2
    51    51    52   ar
    52   144   142    1
    53    78    77    1
    54    28    35   am
    55   142   139    1
    56    54    55    1
    57    80    81    1
    58    55    58    1
    59    75    76    2
    60    46    37   am
    61    34    32   ar
    62    69    70    1
    63    58    59    1
    64    24    25    1
    65    31    32    1
    66   139   140    1
    67   139   138    1
    68    35    36    1
    69    32    33   ar
    70    37    38    2
    71    37    36    1
    72   140   141    2
    73    70    71    2
    74    70    72   am
    75    81    82    2
    76    81    86   am
    77    36    39    1
    78    59    60    1
    79   138   133   am
    80    86    87    1
    81   130   128   ar
    82   130   129   ar
    83   128   126   ar
    84    64    62    1
    85   134   133    2
    86    60    61    1
    87   133   132    1
    88    39    40    1
    89   129   127   ar
    90   126   125    1
    91   126   127   ar
    92    89    88    2
    93   125   122    1
    94    88    87    1
    95    87    90    1
    96    62    61    2
    97    62    63    1
    98    40    41    1
    99   132   131    1
   100   132   135    1
   101   131   123   am
   102   122   123    1
   103   122   121    1
   104    90    91    1
   105    90    92    1
   106   123   124    2
   107    91    93    1
   108    41    42    1
   109   135   137    1
   110   135   136    1
   111    42    43    2
   112   120   118    1
   113   121   112   am
   114   113   112    2
   115   112   111    1
   116   109   107    1
   117   118   117    2
   118   118   119    1
   119   108   106    1
   120    43    45    1
   121    43    44    1
   122   117   116    1
   123   106   107    1
   124   106   103    1
   125   114   111    1
   126   114   115    1
   127   110   111    1
   128   110   104   am
   129   103   104    1
   130   103   102    1
   131   116   115    1
   132   104   105    2
   133    97    96    2
   134   102    96   am
   135    96    95    1
   136    95    94    1
   137    95    98    1
   138   101    99   am
   139    98    99    1
   140    99   100    2
