@<TRIPOS>MOLECULE
tmp/2rijA00.pdb
 101 101 0 0 0
SMALL
GASTEIGER

@<TRIPOS>ATOM
      1  N        -13.6470   33.4250   -6.0080 N.3     8  PHE8       -0.1241
      2  CA       -13.7460   34.6120   -6.8580 C.3     8  PHE8        0.1605
      3  C        -14.3040   34.2700   -8.2480 C.2     8  PHE8        0.2264
      4  O        -15.2520   34.9140   -8.7140 O.2     8  PHE8       -0.2867
      5  CB       -12.3840   35.2650   -7.0000 C.3     8  PHE8        0.0534
      6  CG       -12.3810   36.4790   -7.8840 C.ar    8  PHE8       -0.0203
      7  CD1      -12.7850   37.6990   -7.3920 C.ar    8  PHE8       -0.0042
      8  CD2      -11.9890   36.3940   -9.2070 C.ar    8  PHE8       -0.0042
      9  CE1      -12.7660   38.8370   -8.1860 C.ar    8  PHE8       -0.0003
     10  CE2      -11.9670   37.5160  -10.0100 C.ar    8  PHE8       -0.0003
     11  CZ       -12.3570   38.7430   -9.4930 C.ar    8  PHE8       -0.0000
     12  N        -10.5730   41.9720  -18.8660 N.3    55  ASN55      -0.1225
     13  CA       -10.8260   42.1180  -17.4280 C.3    55  ASN55       0.1785
     14  C        -12.3090   42.1000  -17.1350 C.2    55  ASN55       0.2597
     15  O        -12.8120   42.8910  -16.3420 O.2    55  ASN55      -0.2718
     16  CB       -10.1740   43.3950  -16.8770 C.3    55  ASN55       0.1169
     17  CG        -8.6860   43.4170  -17.0980 C.2    55  ASN55       0.2627
     18  OD1       -8.0660   42.3950  -17.0360 O.2    55  ASN55      -0.2716
     19  ND2       -8.1250   44.5770  -17.3910 N.am   55  ASN55      -0.0877
     20  N        -13.0020   41.1380  -17.7400 N.am   56  PHE56      -0.1962
     21  CA       -14.4580   41.0770  -17.6390 C.3    56  PHE56       0.1771
     22  C        -14.8910   40.7270  -16.2050 C.2    56  PHE56       0.2620
     23  O        -15.9370   41.1690  -15.7710 O.2    56  PHE56      -0.2715
     24  CB       -15.0540   40.0880  -18.6250 C.3    56  PHE56       0.0574
     25  CG       -14.7690   40.4000  -20.0610 C.ar   56  PHE56      -0.0200
     26  CD1      -15.4150   41.4480  -20.7090 C.ar   56  PHE56      -0.0042
     27  CD2      -13.8590   39.6440  -20.7760 C.ar   56  PHE56      -0.0042
     28  CE1      -15.1520   41.7320  -22.0230 C.ar   56  PHE56      -0.0003
     29  CE2      -13.6010   39.9310  -22.1120 C.ar   56  PHE56      -0.0003
     30  CZ       -14.2610   40.9750  -22.7310 C.ar   56  PHE56      -0.0000
     31  N        -14.0780   39.9480  -15.4930 N.am   57  GLY57      -0.1940
     32  CA       -14.3340   39.6380  -14.0780 C.3    57  GLY57       0.2014
     33  C        -14.4060   40.8940  -13.2270 C.2    57  GLY57       0.2639
     34  O        -15.3100   41.0670  -12.4140 O.2    57  GLY57      -0.2714
     35  N        -13.4780   41.8150  -13.4560 N.am   58  SER58      -0.1949
     36  CA       -13.4550   43.0740  -12.7280 C.3    58  SER58       0.1924
     37  C        -14.7040   43.9010  -13.0060 C.2    58  SER58       0.2314
     38  O        -15.2870   44.4550  -12.0940 O.2    58  SER58      -0.2863
     39  CB       -12.1370   43.8530  -12.9880 C.3    58  SER58       0.2116
     40  OG       -10.9940   43.0460  -12.6570 O.3    58  SER58      -0.2180
     41  N        -12.5220   41.1470   -4.0750 N.3    94  PHE94      -0.1241
     42  CA       -11.1350   40.9820   -4.5060 C.3    94  PHE94       0.1605
     43  C        -10.1710   40.5320   -3.4060 C.2    94  PHE94       0.2264
     44  O         -8.9580   40.5050   -3.6200 O.2    94  PHE94      -0.2867
     45  CB       -10.6110   42.2990   -5.0570 C.3    94  PHE94       0.0534
     46  CG       -11.1430   42.6640   -6.4270 C.ar   94  PHE94      -0.0203
     47  CD1      -10.9380   41.8220   -7.5250 C.ar   94  PHE94      -0.0042
     48  CD2      -11.7350   43.9100   -6.6470 C.ar   94  PHE94      -0.0042
     49  CE1      -11.3570   42.1940   -8.7990 C.ar   94  PHE94      -0.0003
     50  CE2      -12.1770   44.2750   -7.9340 C.ar   94  PHE94      -0.0003
     51  CZ       -11.9870   43.4150   -8.9940 C.ar   94  PHE94      -0.0000
     52  N         -6.7760   38.7000   -3.8240 N.3    97  PHE97      -0.1241
     53  CA        -5.7220   39.3530   -4.6040 C.3    97  PHE97       0.1605
     54  C         -5.0540   40.5120   -3.8830 C.2    97  PHE97       0.2264
     55  O         -4.1180   41.0890   -4.4140 O.2    97  PHE97      -0.2867
     56  CB        -6.3230   39.9670   -5.8810 C.3    97  PHE97       0.0534
     57  CG        -6.9940   38.9840   -6.7890 C.ar   97  PHE97      -0.0203
     58  CD1       -6.2570   38.2840   -7.7410 C.ar   97  PHE97      -0.0042
     59  CD2       -8.3670   38.7660   -6.7150 C.ar   97  PHE97      -0.0042
     60  CE1       -6.8950   37.3910   -8.5740 C.ar   97  PHE97      -0.0003
     61  CE2       -9.0030   37.8800   -7.5480 C.ar   97  PHE97      -0.0003
     62  CZ        -8.2860   37.1910   -8.4710 C.ar   97  PHE97      -0.0000
     63  N          0.3350   44.2470   -9.1280 N.3   102  GLY102     -0.1210
     64  CA         0.0440   44.2840  -10.5500 C.3   102  GLY102      0.1956
     65  C         -1.3860   44.0790  -11.0150 C.2   102  GLY102      0.2612
     66  O         -1.6240   43.7850  -12.2050 O.2   102  GLY102     -0.2717
     67  N         -2.3400   44.1930  -10.0970 N.am  103  HIS103     -0.1961
     68  CA        -3.7430   44.0830  -10.4580 C.3   103  HIS103      0.1787
     69  C         -4.2530   45.5160  -10.5130 C.2   103  HIS103      0.2620
     70  O         -4.5930   46.1200   -9.5020 O.2   103  HIS103     -0.2715
     71  CB        -4.5090   43.2890   -9.4150 C.3   103  HIS103      0.0785
     72  CG        -4.0030   41.9100   -9.2090 C.ar  103  HIS103      0.0821
     73  ND1       -4.2180   40.8970  -10.1120 N.ar  103  HIS103     -0.2267
     74  CD2       -3.3160   41.3640   -8.1810 C.ar  103  HIS103      0.1154
     75  CE1       -3.6680   39.7860   -9.6590 C.ar  103  HIS103      0.1986
     76  NE2       -3.1150   40.0430   -8.4870 N.ar  103  HIS103     -0.2212
     77  N         -4.3010   46.0720  -11.7050 N.am  104  GLN104     -0.1963
     78  CA        -4.4240   47.5020  -11.8420 C.3   104  GLN104      0.1733
     79  C         -5.7900   48.0480  -11.4530 C.2   104  GLN104      0.2616
     80  O         -5.8830   49.1110  -10.8740 O.2   104  GLN104     -0.2715
     81  CB        -4.1120   47.8800  -13.2730 C.3   104  GLN104      0.0408
     82  CG        -2.6370   47.7290  -13.6390 C.3   104  GLN104      0.0908
     83  CD        -2.3320   48.5120  -14.8690 C.2   104  GLN104      0.2608
     84  OE1       -2.7340   48.1250  -15.9760 O.2   104  GLN104     -0.2717
     85  NE2       -1.6680   49.6640  -14.6920 N.am  104  GLN104     -0.0878
     86  N         -6.8370   47.3190  -11.7920 N.am  105  ASN105     -0.1958
     87  CA        -8.1900   47.6960  -11.4390 C.3   105  ASN105      0.1819
     88  C         -8.3500   47.6300   -9.9300 C.2   105  ASN105      0.2621
     89  O         -9.0440   48.4610   -9.3520 O.2   105  ASN105     -0.2715
     90  CB        -9.2330   46.8130  -12.1240 C.3   105  ASN105      0.1195
     91  CG        -9.3660   47.1010  -13.6180 C.2   105  ASN105      0.2630
     92  OD1       -9.7250   48.2060  -14.0260 O.2   105  ASN105     -0.2716
     93  ND2       -9.0940   46.0990  -14.4300 N.am  105  ASN105     -0.0877
     94  N         -7.6910   46.6660   -9.2960 N.am  106  ILE106     -0.1977
     95  CA        -7.7970   46.5190   -7.8430 C.3   106  ILE106      0.1596
     96  C         -7.0260   47.6600   -7.1890 C.2   106  ILE106      0.2287
     97  O         -7.5450   48.3150   -6.2990 O.2   106  ILE106     -0.2864
     98  CB        -7.2880   45.1700   -7.3180 C.3   106  ILE106      0.0276
     99  CG1       -7.8740   44.0100   -8.1360 C.3   106  ILE106      0.0022
    100  CG2       -7.6840   45.0330   -5.8310 C.3   106  ILE106      0.0022
    101  CD1       -7.6920   42.5690   -7.5070 C.3   106  ILE106      0.0001
@<TRIPOS>BOND
     1    30    29   ar
     2    30    28   ar
     3    29    27   ar
     4    28    26   ar
     5    27    25   ar
     6    26    25   ar
     7    25    24    1
     8    12    13    1
     9    24    21    1
    10    20    21    1
    11    20    14   am
    12    21    22    1
    13    13    14    1
    14    13    16    1
    15    19    17   am
    16    14    15    2
    17    17    18    2
    18    17    16    1
    19    22    23    2
    20    22    31   am
    21    84    83    2
    22    31    32    1
    23    83    85   am
    24    83    82    1
    25    93    91   am
    26    32    33    1
    27    92    91    2
    28    82    81    1
    29    91    90    1
    30    35    33   am
    31    35    36    1
    32    81    78    1
    33    33    34    2
    34    37    36    1
    35    37    38    2
    36    39    36    1
    37    39    40    1
    38    66    65    2
    39    90    87    1
    40    78    77    1
    41    78    79    1
    42    86    79   am
    43    86    87    1
    44    77    69   am
    45    79    80    2
    46    87    88    1
    47    65    64    1
    48    65    67   am
    49    64    63    1
    50    69    68    1
    51    69    70    2
    52    68    67    1
    53    68    71    1
    54    73    75   ar
    55    73    72   ar
    56    10    11   ar
    57    10     8   ar
    58    88    89    2
    59    88    94   am
    60    75    76   ar
    61    11     9   ar
    62    71    72    1
    63    94    95    1
    64    72    74   ar
    65     8     6   ar
    66    51    49   ar
    67    51    50   ar
    68    49    47   ar
    69     4     3    2
    70    60    62   ar
    71    60    58   ar
    72    76    74   ar
    73    62    61   ar
    74     3     2    1
    75     9     7   ar
    76    99   101    1
    77    99    98    1
    78    50    48   ar
    79     6     7   ar
    80     6     5    1
    81    95    98    1
    82    95    96    1
    83    58    57   ar
    84    61    59   ar
    85    47    46   ar
    86    98   100    1
    87    96    97    2
    88     5     2    1
    89     2     1    1
    90    57    59   ar
    91    57    56    1
    92    48    46   ar
    93    46    45    1
    94    56    53    1
    95    45    42    1
    96    53    54    1
    97    53    52    1
    98    42    41    1
    99    42    43    1
   100    55    54    2
   101    44    43    2
