@<TRIPOS>MOLECULE
tmp/2ripA05.pdb
 175 170 0 0 0
SMALL
GASTEIGER

@<TRIPOS>ATOM
      1  N         66.4330   62.8070   83.4570 N.3    88  ARG88      -0.1245
      2  CA        66.8840   61.8570   82.4600 C.3    88  ARG88       0.1563
      3  C         66.6770   62.4130   81.0530 C.2    88  ARG88       0.2260
      4  O         67.5360   62.2500   80.1950 O.2    88  ARG88      -0.2867
      5  CB        66.1650   60.5300   82.6380 C.3    88  ARG88       0.0307
      6  CG        66.7610   59.3630   81.8790 C.3    88  ARG88       0.0489
      7  CD        65.9600   58.0660   82.0370 C.3    88  ARG88       0.2205
      8  NE        66.0240   57.5110   83.3940 N.pl3  88  ARG88      -0.0865
      9  CZ        66.9820   56.6840   83.8330 C.cat  88  ARG88       0.5346
     10  NH1       67.9670   56.3280   83.0110 N.pl3  88  ARG88       0.1354
     11  NH2       66.9550   56.2110   85.0870 N.pl3  88  ARG88       0.1354
     12  N         59.9140   60.5180   83.9160 N.3   168  GLU168     -0.1231
     13  CA        60.5770   59.2400   84.1340 C.3   168  GLU168      0.1699
     14  C         59.7670   57.9920   83.8300 C.2   168  GLU168      0.2592
     15  O         60.2050   57.1750   83.0370 O.2   168  GLU168     -0.2718
     16  CB        61.0510   59.1230   85.5670 C.3   168  GLU168      0.0402
     17  CG        61.6560   57.7610   85.8610 C.3   168  GLU168      0.1161
     18  CD        63.0930   57.6460   85.3810 C.2   168  GLU168      0.3649
     19  OE1       63.6420   58.6770   84.9000 O.co2 168  GLU168     -0.2457
     20  OE2       63.6800   56.5350   85.5010 O.co2 168  GLU168     -0.2457
     21  N         58.6030   57.8640   84.4710 N.am  169  GLU169     -0.1966
     22  CA        57.8400   56.6100   84.5710 C.3   169  GLU169      0.1733
     23  C         56.6630   56.3970   83.6070 C.2   169  GLU169      0.2616
     24  O         56.0830   55.3080   83.5870 O.2   169  GLU169     -0.2715
     25  CB        57.2950   56.4500   85.9900 C.3   169  GLU169      0.0429
     26  CG        58.3370   56.5640   87.0860 C.3   169  GLU169      0.1163
     27  CD        59.2590   55.3680   87.1390 C.2   169  GLU169      0.3649
     28  OE1       59.5350   54.7540   86.0830 O.co2 169  GLU169     -0.2457
     29  OE2       59.7170   55.0390   88.2410 O.co2 169  GLU169     -0.2457
     30  N         56.2950   57.4230   82.8380 N.am  170  VAL170     -0.1977
     31  CA        55.1490   57.3250   81.9310 C.3   170  VAL170      0.1596
     32  C         55.4780   57.7090   80.4990 C.2   170  VAL170      0.2287
     33  O         55.2800   56.9220   79.5760 O.2   170  VAL170     -0.2864
     34  CB        53.9680   58.1860   82.3850 C.3   170  VAL170      0.0276
     35  CG1       52.6960   57.3590   82.3490 C.3   170  VAL170      0.0022
     36  CG2       54.2090   58.7720   83.7920 C.3   170  VAL170      0.0022
     37  N         58.5980   58.8670   79.3740 N.3   172  SER172     -0.1217
     38  CA        60.0160   58.7350   79.0350 C.3   172  SER172      0.1889
     39  C         60.4340   59.9270   78.1970 C.2   172  SER172      0.2288
     40  O         61.1860   59.7670   77.2460 O.2   172  SER172     -0.2866
     41  CB        60.3040   57.4250   78.2890 C.3   172  SER172      0.2089
     42  OG        60.2280   56.2980   79.1560 O.3   172  SER172     -0.2183
     43  N         55.7540   48.2830   80.8070 N.3   320  PHE320     -0.1227
     44  CA        55.8740   49.3270   81.8220 C.3   320  PHE320      0.1736
     45  C         54.6480   50.2490   81.7750 C.2   320  PHE320      0.2595
     46  O         53.9870   50.4500   82.7910 O.2   320  PHE320     -0.2718
     47  CB        57.1710   50.1150   81.6460 C.3   320  PHE320      0.0547
     48  CG        58.4090   49.2980   81.8700 C.ar  320  PHE320     -0.0202
     49  CD1       58.9480   49.1720   83.1370 C.ar  320  PHE320     -0.0042
     50  CD2       59.0280   48.6450   80.8120 C.ar  320  PHE320     -0.0042
     51  CE1       60.0820   48.4160   83.3540 C.ar  320  PHE320     -0.0003
     52  CE2       60.1660   47.8830   81.0160 C.ar  320  PHE320     -0.0003
     53  CZ        60.6930   47.7660   82.2970 C.ar  320  PHE320     -0.0000
     54  N         54.3510   50.8020   80.5990 N.am  321  ARG321     -0.1980
     55  CA        53.0520   51.4180   80.3220 C.3   321  ARG321      0.1597
     56  C         52.3190   50.5680   79.2770 C.2   321  ARG321      0.2287
     57  O         52.9530   49.7100   78.6590 O.2   321  ARG321     -0.2864
     58  CB        53.2330   52.8490   79.8100 C.3   321  ARG321      0.0334
     59  CG        54.2140   53.0210   78.6690 C.3   321  ARG321      0.0492
     60  CD        53.8140   54.0840   77.6570 C.3   321  ARG321      0.2205
     61  NE        54.7500   55.2010   77.6470 N.pl3 321  ARG321     -0.0865
     62  CZ        55.9120   55.2310   76.9880 C.cat 321  ARG321      0.5346
     63  NH1       56.3050   54.2000   76.2480 N.pl3 321  ARG321      0.1354
     64  NH2       56.6980   56.3040   77.0850 N.pl3 321  ARG321      0.1354
     65  N         70.4090   43.1160   87.8140 N.3   510  TYR510     -0.1241
     66  CA        69.4570   44.2020   87.8370 C.3   510  TYR510      0.1605
     67  C         68.1790   43.6120   88.3860 C.2   510  TYR510      0.2264
     68  O         67.7730   43.9170   89.5180 O.2   510  TYR510     -0.2867
     69  CB        69.2580   44.7740   86.4480 C.3   510  TYR510      0.0534
     70  CG        68.3610   45.9800   86.4030 C.ar  510  TYR510     -0.0201
     71  CD1       68.8590   47.2530   86.6580 C.ar  510  TYR510     -0.0009
     72  CD2       67.0090   45.8490   86.0830 C.ar  510  TYR510     -0.0009
     73  CE1       68.0350   48.3610   86.5980 C.ar  510  TYR510      0.0417
     74  CE2       66.1770   46.9390   86.0220 C.ar  510  TYR510      0.0417
     75  CZ        66.6950   48.1970   86.2810 C.ar  510  TYR510      0.1957
     76  OH        65.8650   49.2900   86.2260 O.3   510  TYR510     -0.2866
     77  N         71.1940   50.6130   90.9630 N.3   593  SER593     -0.1202
     78  CA        69.7540   50.9390   90.9500 C.3   593  SER593      0.2020
     79  C         68.9360   49.7640   91.4920 C.2   593  SER593      0.2618
     80  O         69.2800   49.2240   92.5210 O.2   593  SER593     -0.2717
     81  CB        69.3090   51.3220   89.5250 C.3   593  SER593      0.2103
     82  OG        67.9350   51.6480   89.4700 O.3   593  SER593     -0.2182
     83  N         67.8740   49.3510   90.8110 N.am  594  TYR594     -0.1975
     84  CA        67.1550   48.1450   91.2170 C.3   594  TYR594      0.1639
     85  C         68.1490   47.0430   91.5400 C.2   594  TYR594      0.2290
     86  O         68.0050   46.3270   92.5320 O.2   594  TYR594     -0.2864
     87  CB        66.2010   47.6450   90.1300 C.3   594  TYR594      0.0560
     88  CG        65.1610   46.7360   90.7030 C.ar  594  TYR594     -0.0198
     89  CD1       65.4670   45.4290   91.0820 C.ar  594  TYR594     -0.0009
     90  CD2       63.8680   47.1990   90.9220 C.ar  594  TYR594     -0.0009
     91  CE1       64.4840   44.5970   91.6550 C.ar  594  TYR594      0.0417
     92  CE2       62.8800   46.3810   91.4790 C.ar  594  TYR594      0.0417
     93  CZ        63.1900   45.0970   91.8490 C.ar  594  TYR594      0.1957
     94  OH        62.2020   44.3300   92.4130 O.3   594  TYR594     -0.2866
     95  N         67.7160   51.0380   95.7310 N.3   619  VAL619     -0.1245
     96  CA        66.4400   51.1930   96.4390 C.3   619  VAL619      0.1561
     97  C         66.6340   50.4460   97.7470 C.2   619  VAL619      0.2260
     98  O         67.2910   49.4120   97.7700 O.2   619  VAL619     -0.2867
     99  CB        65.2520   50.6200   95.6380 C.3   619  VAL619      0.0252
    100  CG1       64.1530   50.1150   96.5380 C.3   619  VAL619      0.0019
    101  CG2       64.7110   51.6720   94.7470 C.3   619  VAL619      0.0019
    102  N         60.5720   50.1920   99.5900 N.3   622  TRP622     -0.1241
    103  CA        59.7340   50.6560   98.5060 C.3   622  TRP622      0.1605
    104  C         58.9660   51.9330   98.7840 C.2   622  TRP622      0.2264
    105  O         58.7500   52.7060   97.8660 O.2   622  TRP622     -0.2867
    106  CB        58.9080   49.5290   97.9030 C.3   622  TRP622      0.0550
    107  CG        59.8150   48.7040   97.0610 C.ar  622  TRP622      0.0003
    108  CD1       60.2720   47.4450   97.3310 C.ar  622  TRP622      0.0946
    109  CD2       60.4600   49.1050   95.8510 C.ar  622  TRP622      0.0152
    110  NE1       61.1310   47.0280   96.3460 N.ar  622  TRP622     -0.2442
    111  CE2       61.2660   48.0280   95.4260 C.ar  622  TRP622      0.0810
    112  CE3       60.4320   50.2740   95.0690 C.ar  622  TRP622      0.0012
    113  CZ2       62.0230   48.0700   94.2590 C.ar  622  TRP622      0.0191
    114  CZ3       61.1900   50.3180   93.9060 C.ar  622  TRP622      0.0001
    115  CH2       61.9810   49.2200   93.5160 C.ar  622  TRP622      0.0015
    116  N         60.5920   55.2190   97.0880 N.3   625  TYR625     -0.1241
    117  CA        60.6500   55.4800   95.6430 C.3   625  TYR625      0.1605
    118  C         59.3460   56.0720   95.0840 C.2   625  TYR625      0.2264
    119  O         58.3380   56.1800   95.7990 O.2   625  TYR625     -0.2867
    120  CB        61.0340   54.2090   94.8780 C.3   625  TYR625      0.0534
    121  CG        61.4850   54.4600   93.4500 C.ar  625  TYR625     -0.0201
    122  CD1       62.6390   55.2000   93.1740 C.ar  625  TYR625     -0.0009
    123  CD2       60.7590   53.9500   92.3760 C.ar  625  TYR625     -0.0009
    124  CE1       63.0370   55.4290   91.8760 C.ar  625  TYR625      0.0417
    125  CE2       61.1570   54.1730   91.0750 C.ar  625  TYR625      0.0417
    126  CZ        62.2910   54.9160   90.8240 C.ar  625  TYR625      0.1957
    127  OH        62.6680   55.1400   89.5100 O.3   625  TYR625     -0.2866
    128  N         55.7960   54.0310   89.5740 N.3   629  TYR629     -0.1241
    129  CA        56.5490   52.7930   89.4200 C.3   629  TYR629      0.1605
    130  C         56.2960   51.8270   90.5520 C.2   629  TYR629      0.2264
    131  O         55.9310   50.6800   90.3020 O.2   629  TYR629     -0.2867
    132  CB        58.0330   53.0960   89.3480 C.3   629  TYR629      0.0534
    133  CG        58.9290   51.8990   89.1830 C.ar  629  TYR629     -0.0201
    134  CD1       59.1370   51.0220   90.2290 C.ar  629  TYR629     -0.0009
    135  CD2       59.5930   51.6670   87.9910 C.ar  629  TYR629     -0.0009
    136  CE1       59.9660   49.9270   90.1000 C.ar  629  TYR629      0.0417
    137  CE2       60.4240   50.5770   87.8460 C.ar  629  TYR629      0.0417
    138  CZ        60.6100   49.7080   88.9140 C.ar  629  TYR629      0.1957
    139  OH        61.4410   48.6190   88.8020 O.3   629  TYR629     -0.2866
    140  N         52.6580   50.3100   90.7070 N.3   632  ARG632     -0.1245
    141  CA        52.5020   49.4140   89.5600 C.3   632  ARG632      0.1563
    142  C         52.7390   47.9710   89.9580 C.2   632  ARG632      0.2260
    143  O         52.0950   47.0810   89.4430 O.2   632  ARG632     -0.2867
    144  CB        53.4750   49.7980   88.4450 C.3   632  ARG632      0.0307
    145  CG        53.2410   49.1090   87.1060 C.3   632  ARG632      0.0489
    146  CD        54.2300   49.4870   86.0150 C.3   632  ARG632      0.2205
    147  NE        54.2260   50.9080   85.6680 N.pl3 632  ARG632     -0.0865
    148  CZ        55.3410   51.6140   85.4140 C.cat 632  ARG632      0.5346
    149  NH1       56.5330   51.0360   85.4720 N.pl3 632  ARG632      0.1354
    150  NH2       55.2790   52.9000   85.0910 N.pl3 632  ARG632      0.1354
    151  N         66.4770   60.5870   91.4320 N.3   673  ASN673     -0.1225
    152  CA        65.7030   59.3610   91.1680 C.3   673  ASN673      0.1785
    153  C         65.5360   58.4450   92.3880 C.2   673  ASN673      0.2597
    154  O         64.4480   58.3060   92.9220 O.2   673  ASN673     -0.2718
    155  CB        66.3070   58.5720   89.9930 C.3   673  ASN673      0.1169
    156  CG        65.5060   57.3390   89.6530 C.2   673  ASN673      0.2627
    157  OD1       64.3750   57.1800   90.1020 O.2   673  ASN673     -0.2716
    158  ND2       66.0750   56.4690   88.8410 N.am  673  ASN673     -0.0877
    159  N         66.6190   57.7970   92.7890 N.am  674  VAL674     -0.1980
    160  CA        66.6660   57.0000   94.0110 C.3   674  VAL674      0.1595
    161  C         67.4010   57.8650   95.0270 C.2   674  VAL674      0.2287
    162  O         68.6230   58.0170   94.9440 O.2   674  VAL674     -0.2864
    163  CB        67.4550   55.7020   93.7930 C.3   674  VAL674      0.0276
    164  CG1       67.6480   54.9770   95.0920 C.3   674  VAL674      0.0022
    165  CG2       66.7560   54.8300   92.8280 C.3   674  VAL674      0.0022
    166  N         71.8060   59.7600   89.4860 N.3   703  HIS703     -0.1241
    167  CA        71.5780   58.3270   89.4820 C.3   703  HIS703      0.1621
    168  C         72.5140   57.5370   88.6050 C.2   703  HIS703      0.2264
    169  O         72.7640   56.3650   88.8830 O.2   703  HIS703     -0.2867
    170  CB        70.1380   57.9860   89.1150 C.3   703  HIS703      0.0745
    171  CG        69.7670   56.5670   89.4240 C.ar  703  HIS703      0.0817
    172  ND1       69.8700   56.0270   90.6910 N.ar  703  HIS703     -0.2268
    173  CD2       69.3010   55.5750   88.6280 C.ar  703  HIS703      0.1154
    174  CE1       69.4820   54.7640   90.6580 C.ar  703  HIS703      0.1986
    175  NE2       69.1220   54.4710   89.4210 N.ar  703  HIS703     -0.2212
@<TRIPOS>BOND
     1    63    62    1
     2    62    64    1
     3    62    61    2
     4    40    39    2
     5    61    60    1
     6    60    59    1
     7    39    38    1
     8    41    38    1
     9    41    42    1
    10    57    56    2
    11    59    58    1
    12    38    37    1
    13    56    55    1
    14    33    32    2
    15    58    55    1
    16     4     3    2
    17    55    54    1
    18    32    31    1
    19    54    45   am
    20    43    44    1
    21    50    52   ar
    22    50    48   ar
    23    52    53   ar
    24     3     2    1
    25    47    44    1
    26    47    48    1
    27    45    44    1
    28    45    46    2
    29    48    49   ar
    30     6     7    1
    31     6     5    1
    32    31    34    1
    33    31    30    1
    34     7     8    1
    35    53    51   ar
    36    35    34    1
    37    34    36    1
    38     2     5    1
    39     2     1    1
    40    30    23   am
    41    10     9    1
    42    15    14    2
    43    49    51   ar
    44     8     9    2
    45    24    23    2
    46    23    22    1
    47    14    13    1
    48    14    21   am
    49     9    11    1
    50    12    13    1
    51    13    16    1
    52    21    22    1
    53    22    25    1
    54    19    18   ar
    55   150   148    1
    56    18    20   ar
    57    18    17    1
    58   148   149    1
    59   148   147    2
    60    16    17    1
    61   147   146    1
    62    25    26    1
    63   146   145    1
    64    74    72   ar
    65    74    75   ar
    66    28    27   ar
    67    72    70   ar
    68    76    75    1
    69    75    73   ar
    70    70    69    1
    71    70    71   ar
    72    69    66    1
    73    73    71   ar
    74    26    27    1
    75   145   144    1
    76    27    29   ar
    77    65    66    1
    78    66    67    1
    79   137   135   ar
    80   137   138   ar
    81   135   133   ar
    82    67    68    2
    83   144   141    1
    84   168   169    2
    85   168   167    1
    86   173   175   ar
    87   173   171   ar
    88   139   138    1
    89   158   156   am
    90   138   136   ar
    91   170   171    1
    92   170   167    1
    93   133   132    1
    94   133   134   ar
    95   132   129    1
    96   129   128    1
    97   129   130    1
    98   175   174   ar
    99   171   172   ar
   100   143   142    2
   101    82    81    1
   102   167   166    1
   103   127   126    1
   104    81    78    1
   105   141   142    1
   106   141   140    1
   107   156   155    1
   108   156   157    2
   109   155   152    1
   110   136   134   ar
   111    87    88    1
   112    87    84    1
   113   131   130    2
   114   174   172   ar
   115    88    90   ar
   116    88    89   ar
   117    83    84    1
   118    83    79   am
   119   126   125   ar
   120   126   124   ar
   121    90    92   ar
   122    78    77    1
   123    78    79    1
   124   125   123   ar
   125    89    91   ar
   126   152   151    1
   127   152   153    1
   128    84    85    1
   129    92    93   ar
   130    79    80    2
   131    85    86    2
   132    91    93   ar
   133    93    94    1
   134   124   122   ar
   135   123   121   ar
   136   153   159   am
   137   153   154    2
   138   159   160    1
   139   165   163    1
   140   122   121   ar
   141   121   120    1
   142   115   114   ar
   143   115   113   ar
   144   163   160    1
   145   163   164    1
   146   114   112   ar
   147   160   161    1
   148   113   111   ar
   149   101    99    1
   150   120   117    1
   151   162   161    2
   152   112   109   ar
   153   118   117    1
   154   118   119    2
   155   111   109   ar
   156   111   110   ar
   157    99    96    1
   158    99   100    1
   159   117   116    1
   160    95    96    1
   161   109   107   ar
   162   110   108   ar
   163    96    97    1
   164   107   108   ar
   165   107   106    1
   166    97    98    2
   167   105   104    2
   168   106   103    1
   169   103   104    1
   170   103   102    1
