@<TRIPOS>MOLECULE
tmp/2rirE00.pdb
 194 187 0 0 0
SMALL
GASTEIGER

@<TRIPOS>ATOM
      1  N        183.7740   18.5590  164.2620 N.3   125  PHE125     -0.1241
      2  CA       185.1450   18.1020  164.4910 C.3   125  PHE125      0.1605
      3  C        185.3150   17.3860  165.8400 C.2   125  PHE125      0.2264
      4  O        186.2630   16.6320  166.0290 O.2   125  PHE125     -0.2867
      5  CB       186.1410   19.2560  164.3080 C.3   125  PHE125      0.0534
      6  CG       186.4200   19.6030  162.8520 C.ar  125  PHE125     -0.0203
      7  CD1      185.4290   19.4740  161.8700 C.ar  125  PHE125     -0.0042
      8  CD2      187.6760   20.0740  162.4640 C.ar  125  PHE125     -0.0042
      9  CE1      185.6890   19.7970  160.5260 C.ar  125  PHE125     -0.0003
     10  CE2      187.9450   20.4000  161.1140 C.ar  125  PHE125     -0.0003
     11  CZ       186.9440   20.2650  160.1500 C.ar  125  PHE125     -0.0000
     12  N        186.4460   13.0390  163.1130 N.3   131  ALA131     -0.1245
     13  CA       187.8490   13.0360  163.4870 C.3   131  ALA131      0.1562
     14  C        188.5950   11.9820  162.6960 C.2   131  ALA131      0.2260
     15  O        189.6320   12.2830  162.0940 O.2   131  ALA131     -0.2867
     16  CB       187.9870   12.7760  164.9600 C.3   131  ALA131      0.0290
     17  N        188.6600   12.3790  158.9600 N.3   134  ASN134     -0.1240
     18  CA       189.4940   13.5380  158.7230 C.3   134  ASN134      0.1653
     19  C        190.9460   13.1990  158.8420 C.2   134  ASN134      0.2266
     20  O        191.7760   13.8270  158.1770 O.2   134  ASN134     -0.2867
     21  CB       189.1570   14.6620  159.6830 C.3   134  ASN134      0.1155
     22  CG       188.2600   15.7250  159.0600 C.2   134  ASN134      0.2627
     23  OD1      188.1000   15.8090  157.8390 O.2   134  ASN134     -0.2716
     24  ND2      187.6750   16.5600  159.9170 N.am  134  ASN134     -0.0877
     25  N        194.6030   14.0500  156.7430 N.3   138  THR138     -0.1218
     26  CA       195.6430   14.6290  157.5940 C.3   138  THR138      0.1862
     27  C        196.9660   13.8510  157.6530 C.2   138  THR138      0.2287
     28  O        198.0190   14.4630  157.7500 O.2   138  THR138     -0.2866
     29  CB       195.1300   15.2070  158.9530 C.3   138  THR138      0.1770
     30  OG1      196.0830   14.9620  159.9910 O.3   138  THR138     -0.2211
     31  CG2      193.8320   14.6350  159.3290 C.3   138  THR138      0.0375
     32  N        200.8080    9.6140  170.7800 N.3   162  GLY162     -0.1210
     33  CA       199.4260    9.4190  171.1360 C.3   162  GLY162      0.1956
     34  C        198.7910    8.5490  170.1080 C.2   162  GLY162      0.2612
     35  O        198.8150    8.8770  168.9340 O.2   162  GLY162     -0.2717
     36  N        198.2450    7.4200  170.5470 N.am  163  LEU163     -0.1965
     37  CA       197.4450    6.5660  169.6820 C.3   163  LEU163      0.1728
     38  C        195.9580    6.9480  169.7350 C.2   163  LEU163      0.2617
     39  O        195.1020    6.1270  170.0600 O.2   163  LEU163     -0.2715
     40  CB       197.6330    5.1140  170.0900 C.3   163  LEU163      0.0311
     41  CG       197.2260    4.0380  169.0880 C.3   163  LEU163      0.0022
     42  CD1      198.3490    3.8300  168.0730 C.3   163  LEU163      0.0001
     43  CD2      196.9400    2.7550  169.8330 C.3   163  LEU163      0.0001
     44  N        195.6560    8.2020  169.4160 N.am  164  GLY164     -0.1940
     45  CA       194.2800    8.6550  169.3850 C.3   164  GLY164      0.2014
     46  C        193.6080    8.3950  168.0540 C.2   164  GLY164      0.2639
     47  O        194.1640    7.6970  167.1800 O.2   164  GLY164     -0.2714
     48  N        192.4110    8.9590  167.8950 N.am  165  ARG165     -0.1963
     49  CA       191.6620    8.8780  166.6440 C.3   165  ARG165      0.1729
     50  C        192.5390    9.1740  165.4170 C.2   165  ARG165      0.2617
     51  O        192.5570    8.3860  164.4600 O.2   165  ARG165     -0.2715
     52  CB       190.4530    9.8080  166.6920 C.3   165  ARG165      0.0348
     53  CG       189.4550    9.3920  167.7400 C.3   165  ARG165      0.0492
     54  CD       188.4200   10.4510  168.0000 C.3   165  ARG165      0.2205
     55  NE       189.0090   11.7750  168.2010 N.pl3 165  ARG165     -0.0865
     56  CZ       188.3020   12.8820  168.4150 C.cat 165  ARG165      0.5346
     57  NH1      188.9300   14.0320  168.5710 N.pl3 165  ARG165      0.1354
     58  NH2      186.9740   12.8450  168.4670 N.pl3 165  ARG165      0.1354
     59  N        193.2730   10.2900  165.4470 N.am  166  THR166     -0.1937
     60  CA       194.2340   10.5760  164.3760 C.3   166  THR166      0.2028
     61  C        195.5320    9.7920  164.5240 C.2   166  THR166      0.2642
     62  O        196.0070    9.2330  163.5500 O.2   166  THR166     -0.2714
     63  CB       194.5570   12.0870  164.2010 C.3   166  THR166      0.1808
     64  OG1      195.1640   12.6010  165.3910 O.3   166  THR166     -0.2208
     65  CG2      193.2940   12.8840  163.8640 C.3   166  THR166      0.0379
     66  N        196.0980    9.7650  165.7320 N.am  167  GLY167     -0.1954
     67  CA       197.3670    9.0780  166.0070 C.3   167  GLY167      0.1869
     68  C        197.4330    7.6630  165.4490 C.2   167  GLY167      0.2309
     69  O        198.4500    7.2470  164.8750 O.2   167  GLY167     -0.2863
     70  N        202.3750    6.4120  174.1150 N.3   184  ALA184     -0.1231
     71  CA       201.0310    6.5000  174.6470 C.3   184  ALA184      0.1694
     72  C        201.1320    6.3010  176.1440 C.2   184  ALA184      0.2592
     73  O        202.2370    6.1070  176.6830 O.2   184  ALA184     -0.2718
     74  CB       200.1330    5.4630  174.0440 C.3   184  ALA184      0.0304
     75  N        199.9770    6.3620  176.8100 N.am  185  ARG185     -0.1966
     76  CA       199.8870    6.3590  178.2590 C.3   185  ARG185      0.1729
     77  C        199.2480    5.0900  178.7540 C.2   185  ARG185      0.2616
     78  O        199.8220    4.3780  179.5730 O.2   185  ARG185     -0.2715
     79  CB       199.0070    7.5150  178.6990 C.3   185  ARG185      0.0348
     80  CG       199.7470    8.7010  179.2430 C.3   185  ARG185      0.0492
     81  CD       198.8270    9.8920  179.2840 C.3   185  ARG185      0.2205
     82  NE       197.5260    9.5950  179.8820 N.pl3 185  ARG185     -0.0865
     83  CZ       196.6360   10.5300  180.2170 C.cat 185  ARG185      0.5346
     84  NH1      195.4730   10.1840  180.7700 N.pl3 185  ARG185      0.1354
     85  NH2      196.9140   11.8160  180.0040 N.pl3 185  ARG185      0.1354
     86  N        198.0360    4.8330  178.2660 N.am  186  SER186     -0.1950
     87  CA       197.2390    3.7020  178.7140 C.3   186  SER186      0.1924
     88  C        197.8720    2.3650  178.3250 C.2   186  SER186      0.2314
     89  O        198.5550    2.2570  177.3160 O.2   186  SER186     -0.2863
     90  CB       195.8070    3.8080  178.1700 C.3   186  SER186      0.2116
     91  OG       195.6880    3.1350  176.9320 O.3   186  SER186     -0.2180
     92  N        196.2720    1.1740  174.9140 N.3   189  HIS189     -0.1241
     93  CA       197.0130    1.7990  173.8230 C.3   189  HIS189      0.1621
     94  C        198.3610    1.1100  173.5410 C.2   189  HIS189      0.2264
     95  O        198.6900    0.8250  172.3990 O.2   189  HIS189     -0.2867
     96  CB       197.1970    3.3050  174.0730 C.3   189  HIS189      0.0745
     97  CG       195.9520    4.1050  173.8410 C.ar  189  HIS189      0.0817
     98  ND1      195.7660    5.3650  174.3670 N.ar  189  HIS189     -0.2268
     99  CD2      194.8170    3.8120  173.1560 C.ar  189  HIS189      0.1154
    100  CE1      194.5760    5.8160  174.0060 C.ar  189  HIS189      0.1986
    101  NE2      193.9790    4.8910  173.2760 N.ar  189  HIS189     -0.2212
    102  N        204.8910    7.5530  177.4840 N.3   202  THR202     -0.1218
    103  CA       205.2740    8.9650  177.4390 C.3   202  THR202      0.1862
    104  C        206.0590    9.4710  178.6540 C.2   202  THR202      0.2287
    105  O        206.7600   10.4740  178.5490 O.2   202  THR202     -0.2866
    106  CB       204.0830    9.8970  177.1670 C.3   202  THR202      0.1770
    107  OG1      202.8730    9.3080  177.6570 O.3   202  THR202     -0.2211
    108  CG2      203.9610   10.1420  175.6850 C.3   202  THR202      0.0375
    109  N        200.3010   14.1270  168.1350 N.3   218  THR218     -0.1203
    110  CA       198.8500   14.3400  168.0960 C.3   218  THR218      0.1994
    111  C        198.2970   14.7590  169.4450 C.2   218  THR218      0.2618
    112  O        197.1120   15.0560  169.5380 O.2   218  THR218     -0.2717
    113  CB       198.0160   13.1250  167.5220 C.3   218  THR218      0.1784
    114  OG1      197.6630   12.1840  168.5490 O.3   218  THR218     -0.2211
    115  CG2      198.7760   12.4210  166.4380 C.3   218  THR218      0.0376
    116  N        199.1370   14.7910  170.4820 N.am  219  ILE219     -0.1966
    117  CA       198.6560   15.0720  171.8400 C.3   219  ILE219      0.1712
    118  C        198.4060   16.5540  172.0630 C.2   219  ILE219      0.2458
    119  O        199.3050   17.3780  171.8490 O.2   219  ILE219     -0.2730
    120  CB       199.6060   14.5490  172.9180 C.3   219  ILE219      0.0289
    121  CG1      199.5470   13.0210  172.9670 C.3   219  ILE219      0.0022
    122  CG2      199.2450   15.1330  174.2820 C.3   219  ILE219      0.0023
    123  CD1      200.8550   12.3560  173.3790 C.3   219  ILE219      0.0001
    124  N        197.1830   16.8980  172.5150 N.am  220  PRO220     -0.2716
    125  CA       196.7950   18.2970  172.6570 C.3   220  PRO220      0.1536
    126  C        197.2170   18.8540  174.0000 C.2   220  PRO220      0.2599
    127  O        196.3860   19.3730  174.7400 O.2   220  PRO220     -0.2715
    128  CB       195.2650   18.2510  172.5460 C.3   220  PRO220      0.0310
    129  CG       194.8700   16.8160  172.8520 C.3   220  PRO220      0.0237
    130  CD       196.1090   15.9750  172.9380 C.3   220  PRO220      0.0939
    131  N        198.5070   18.7450  174.3030 N.am  221  SER221     -0.1950
    132  CA       199.0600   19.2430  175.5550 C.3   221  SER221      0.1924
    133  C        200.5830   19.2330  175.4840 C.2   221  SER221      0.2314
    134  O        201.1800   18.2780  174.9920 O.2   221  SER221     -0.2863
    135  CB       198.5500   18.3920  176.7230 C.3   221  SER221      0.2116
    136  OG       199.5080   18.2940  177.7480 O.3   221  SER221     -0.2180
    137  N        204.1250   18.5250  175.6140 N.3   222  ILE222     -0.1245
    138  CA       205.0130   17.3830  175.9500 C.3   222  ILE222      0.1561
    139  C        206.4140   17.5120  175.3860 C.2   222  ILE222      0.2260
    140  O        207.3790   17.0740  176.0040 O.2   222  ILE222     -0.2867
    141  CB       204.4720   16.0310  175.4630 C.3   222  ILE222      0.0252
    142  CG1      203.3610   16.2470  174.4550 C.3   222  ILE222      0.0019
    143  CG2      204.0040   15.1750  176.6450 C.3   222  ILE222      0.0019
    144  CD1      202.7050   14.9940  174.0900 C.3   222  ILE222      0.0001
    145  N        200.7030   18.2900  165.0670 N.3   239  LEU239     -0.1231
    146  CA       199.3850   18.3750  164.4650 C.3   239  LEU239      0.1693
    147  C        198.2960   18.8010  165.4160 C.2   239  LEU239      0.2592
    148  O        197.1850   19.0910  164.9920 O.2   239  LEU239     -0.2718
    149  CB       199.0080   17.0610  163.8030 C.3   239  LEU239      0.0284
    150  CG       199.7990   16.7270  162.5400 C.3   239  LEU239      0.0019
    151  CD1      200.7280   15.5890  162.7890 C.3   239  LEU239      0.0001
    152  CD2      198.8420   16.3080  161.4920 C.3   239  LEU239      0.0001
    153  N        198.6180   18.8360  166.7030 N.am  240  ALA240     -0.1966
    154  CA       197.6640   19.2460  167.7370 C.3   240  ALA240      0.1728
    155  C        197.2250   20.7240  167.6360 C.2   240  ALA240      0.2616
    156  O        198.0020   21.6010  167.2130 O.2   240  ALA240     -0.2715
    157  CB       198.2300   18.9570  169.1040 C.3   240  ALA240      0.0334
    158  N        195.9760   20.9760  168.0350 N.am  241  SER241     -0.1950
    159  CA       195.3810   22.3090  168.0050 C.3   241  SER241      0.1924
    160  C        196.2220   23.3340  168.7630 C.2   241  SER241      0.2314
    161  O        196.8970   22.9810  169.7290 O.2   241  SER241     -0.2863
    162  CB       193.9720   22.2570  168.5980 C.3   241  SER241      0.2116
    163  OG       193.0300   21.8280  167.6350 O.3   241  SER241     -0.2180
    164  N        200.9680   22.6490  161.8360 N.3   261  ALA261     -0.1231
    165  CA       200.2880   22.5910  160.5450 C.3   261  ALA261      0.1679
    166  C        198.8040   22.3880  160.7750 C.2   261  ALA261      0.2434
    167  O        198.3170   21.2660  160.8090 O.2   261  ALA261     -0.2733
    168  CB       200.8600   21.4920  159.7060 C.3   261  ALA261      0.0304
    169  N        198.0680   23.4790  160.9580 N.am  262  PRO262     -0.2718
    170  CA       196.6750   23.2270  161.3290 C.3   262  PRO262      0.1535
    171  C        195.8100   23.0250  160.0750 C.2   262  PRO262      0.2599
    172  O        196.2580   23.3360  158.9650 O.2   262  PRO262     -0.2715
    173  CB       196.2860   24.4960  162.0980 C.3   262  PRO262      0.0310
    174  CG       197.1490   25.5990  161.4610 C.3   262  PRO262      0.0237
    175  CD       198.3740   24.9210  160.8400 C.3   262  PRO262      0.0939
    176  N        194.6010   22.4910  160.2600 N.am  263  GLY263     -0.1941
    177  CA       193.6750   22.2440  159.1590 C.3   263  GLY263      0.2014
    178  C        194.3290   21.6490  157.9210 C.2   263  GLY263      0.2639
    179  O        194.2390   22.2130  156.8260 O.2   263  GLY263     -0.2714
    180  N        194.9970   20.5140  158.0880 N.am  264  LEU264     -0.1963
    181  CA       195.5320   19.8010  156.9380 C.3   264  LEU264      0.1713
    182  C        194.4640   19.2640  155.9770 C.2   264  LEU264      0.2458
    183  O        194.6140   19.4210  154.7650 O.2   264  LEU264     -0.2730
    184  CB       196.5170   18.7170  157.3630 C.3   264  LEU264      0.0310
    185  CG       198.0000   18.9790  157.0940 C.3   264  LEU264      0.0022
    186  CD1      198.3650   20.4330  156.9450 C.3   264  LEU264      0.0001
    187  CD2      198.7820   18.3950  158.2090 C.3   264  LEU264      0.0001
    188  N        193.3850   18.6350  156.4990 N.am  265  PRO265     -0.2727
    189  CA       192.4390   18.0340  155.5590 C.3   265  PRO265      0.1402
    190  C        191.9500   19.0690  154.5640 C.2   265  PRO265      0.2269
    191  O        191.8230   18.7810  153.3590 O.2   265  PRO265     -0.2865
    192  CB       191.2870   17.5920  156.4580 C.3   265  PRO265      0.0296
    193  CG       191.9280   17.3500  157.7950 C.3   265  PRO265      0.0237
    194  CD       192.9630   18.4310  157.8990 C.3   265  PRO265      0.0939
@<TRIPOS>BOND
     1   191   190    2
     2   190   189    1
     3   183   182    2
     4   189   192    1
     5   189   188    1
     6   182   188   am
     7   182   181    1
     8   192   193    1
     9   188   194    1
    10    25    26    1
    11   179   178    2
    12   181   184    1
    13   181   180    1
    14   186   185    1
    15   185   184    1
    16   185   187    1
    17    26    27    1
    18    26    29    1
    19    27    28    2
    20   193   194    1
    21    23    22    2
    22   178   180   am
    23   178   177    1
    24    20    19    2
    25    18    19    1
    26    18    17    1
    27    18    21    1
    28    29    31    1
    29    29    30    1
    30   172   171    2
    31    22    21    1
    32    22    24   am
    33   177   176    1
    34   168   165    1
    35   171   176   am
    36   171   170    1
    37    11     9   ar
    38    11    10   ar
    39     9     7   ar
    40   165   166    1
    41   165   164    1
    42   166   167    2
    43   166   169   am
    44   175   169    1
    45   175   174    1
    46   169   170    1
    47    10     8   ar
    48   170   173    1
    49   174   173    1
    50   152   150    1
    51     7     6   ar
    52    15    14    2
    53     8     6   ar
    54   150   151    1
    55   150   149    1
    56    14    13    1
    57     6     5    1
    58    12    13    1
    59    13    16    1
    60    62    61    2
    61   149   146    1
    62    65    63    1
    63    63    60    1
    64    63    64    1
    65     1     2    1
    66     5     2    1
    67    60    61    1
    68    60    59    1
    69    51    50    2
    70   146   145    1
    71   146   147    1
    72     2     3    1
    73    61    66   am
    74    69    68    2
    75   148   147    2
    76   147   153   am
    77    50    59   am
    78    50    49    1
    79    68    67    1
    80    66    67    1
    81     3     4    2
    82   115   113    1
    83    49    52    1
    84    49    48    1
    85    52    53    1
    86   153   154    1
    87    47    46    2
    88   156   155    2
    89   113   110    1
    90   113   114    1
    91   163   162    1
    92   155   154    1
    93   155   158   am
    94   154   157    1
    95    53    54    1
    96    48    46   am
    97    54    55    1
    98   159   158    1
    99   159   162    1
   100   159   160    1
   101    46    45    1
   102    42    41    1
   103   110   109    1
   104   110   111    1
   105    55    56    2
   106    56    58    1
   107    56    57    1
   108   160   161    2
   109    35    34    2
   110    41    43    1
   111    41    40    1
   112    45    44    1
   113    44    38   am
   114   111   112    2
   115   111   116   am
   116    37    38    1
   117    37    40    1
   118    37    36    1
   119    38    39    2
   120    34    36   am
   121    34    33    1
   122   116   117    1
   123    32    33    1
   124   117   118    1
   125   117   120    1
   126   119   118    2
   127   118   124   am
   128    95    94    2
   129   124   125    1
   130   124   130    1
   131   128   125    1
   132   128   129    1
   133   125   126    1
   134   129   130    1
   135   120   121    1
   136   120   122    1
   137   121   123    1
   138    99   101   ar
   139    99    97   ar
   140   101   100   ar
   141    94    93    1
   142    93    96    1
   143    93    92    1
   144    97    96    1
   145    97    98   ar
   146   126   131   am
   147   126   127    2
   148   100    98   ar
   149    74    71    1
   150   144   142    1
   151    70    71    1
   152   131   132    1
   153   142   141    1
   154    71    72    1
   155   134   133    2
   156   139   138    1
   157   139   140    2
   158   141   138    1
   159   141   143    1
   160   133   132    1
   161   132   135    1
   162   137   138    1
   163   108   106    1
   164    72    73    2
   165    72    75   am
   166   135   136    1
   167    75    76    1
   168    91    90    1
   169   106   103    1
   170   106   107    1
   171    89    88    2
   172   103   102    1
   173   103   104    1
   174    90    87    1
   175    76    79    1
   176    76    77    1
   177    86    87    1
   178    86    77   am
   179    88    87    1
   180   105   104    2
   181    79    80    1
   182    77    78    2
   183    80    81    1
   184    81    82    1
   185    82    83    2
   186    85    83    1
   187    83    84    1
