@<TRIPOS>MOLECULE
tmp/2rj9A01.pdb
 105 101 0 0 0
SMALL
GASTEIGER

@<TRIPOS>ATOM
      1  N        -17.3400  -26.4230    1.7730 N.3    60  PHE60      -0.1241
      2  CA       -17.5810  -26.9800    3.1010 C.3    60  PHE60       0.1605
      3  C        -18.6140  -26.1620    3.8120 C.2    60  PHE60       0.2264
      4  O        -18.5370  -24.9250    3.8700 O.2    60  PHE60      -0.2867
      5  CB       -16.2870  -27.0640    3.9190 C.3    60  PHE60       0.0534
      6  CG       -15.3240  -28.0860    3.3810 C.ar   60  PHE60      -0.0203
      7  CD1      -14.6340  -27.8520    2.1760 C.ar   60  PHE60      -0.0042
      8  CD2      -15.1130  -29.2820    4.0660 C.ar   60  PHE60      -0.0042
      9  CE1      -13.7530  -28.8080    1.6460 C.ar   60  PHE60      -0.0003
     10  CE2      -14.2420  -30.2530    3.5440 C.ar   60  PHE60      -0.0003
     11  CZ       -13.5510  -30.0060    2.3460 C.ar   60  PHE60      -0.0000
     12  N        -20.1430  -26.5380    7.4190 N.3    62  ILE62      -0.1231
     13  CA       -20.1470  -27.2370    8.6940 C.3    62  ILE62       0.1692
     14  C        -20.8570  -26.3790    9.7450 C.2    62  ILE62       0.2592
     15  O        -20.7310  -25.1470    9.7490 O.2    62  ILE62      -0.2718
     16  CB       -18.6900  -27.5830    9.1420 C.3    62  ILE62       0.0266
     17  CG1      -17.9710  -28.4370    8.0790 C.3    62  ILE62       0.0019
     18  CG2      -18.6790  -28.2990   10.5030 C.3    62  ILE62       0.0020
     19  CD1      -18.6860  -29.6600    7.6440 C.3    62  ILE62       0.0001
     20  N        -21.6200  -27.0390   10.6160 N.am   63  LYS63      -0.1966
     21  CA       -22.3290  -26.3640   11.7010 C.3    63  LYS63       0.1728
     22  C        -23.2120  -25.2250   11.1300 C.2    63  LYS63       0.2616
     23  O        -23.9800  -25.4650   10.2010 O.2    63  LYS63      -0.2715
     24  CB       -21.3350  -25.8980   12.7730 C.3    63  LYS63       0.0311
     25  CG       -20.5790  -27.0770   13.4690 C.3    63  LYS63       0.0038
     26  CD       -19.6570  -26.5970   14.5980 C.3    63  LYS63       0.0206
     27  CE       -18.3160  -26.0750   14.0630 C.3    63  LYS63       0.1093
     28  NZ       -17.3170  -25.8570   15.1690 N.3    63  LYS63      -0.1314
     29  N        -23.0850  -23.9950   11.6410 N.am   64  LYS64      -0.1963
     30  CA       -23.9620  -22.9050   11.2090 C.3    64  LYS64       0.1728
     31  C        -23.8150  -22.4880    9.7310 C.2    64  LYS64       0.2616
     32  O        -24.7260  -21.8780    9.1540 O.2    64  LYS64      -0.2715
     33  CB       -23.8160  -21.6860   12.1040 C.3    64  LYS64       0.0311
     34  CG       -24.4090  -21.9170   13.4770 C.3    64  LYS64       0.0038
     35  CD       -24.2560  -20.7040   14.3380 C.3    64  LYS64       0.0206
     36  CE       -24.9950  -20.9180   15.6450 C.3    64  LYS64       0.1093
     37  NZ       -24.7150  -19.7970   16.5770 N.3    64  LYS64      -0.1314
     38  N        -22.6860  -22.8360    9.1100 N.am   65  TYR65      -0.1974
     39  CA       -22.4480  -22.3770    7.7200 C.3    65  TYR65       0.1639
     40  C        -23.3460  -23.0410    6.6710 C.2    65  TYR65       0.2290
     41  O        -23.3780  -22.6100    5.4960 O.2    65  TYR65      -0.2864
     42  CB       -20.9830  -22.5280    7.3570 C.3    65  TYR65       0.0560
     43  CG       -20.1210  -21.4430    7.9600 C.ar   65  TYR65      -0.0198
     44  CD1      -19.3440  -20.6220    7.1510 C.ar   65  TYR65      -0.0009
     45  CD2      -20.0720  -21.2510    9.3570 C.ar   65  TYR65      -0.0009
     46  CE1      -18.5290  -19.6090    7.7150 C.ar   65  TYR65       0.0417
     47  CE2      -19.2760  -20.2410    9.9230 C.ar   65  TYR65       0.0417
     48  CZ       -18.5090  -19.4290    9.0850 C.ar   65  TYR65       0.1957
     49  OH       -17.7130  -18.4450    9.6410 O.3    65  TYR65      -0.2866
     50  N        -11.9500  -26.6530   11.5330 N.3   121  VAL121     -0.1231
     51  CA       -12.9400  -26.7850   10.4290 C.3   121  VAL121      0.1692
     52  C        -12.4180  -26.1990    9.1070 C.2   121  VAL121      0.2592
     53  O        -12.4980  -26.8500    8.0550 O.2   121  VAL121     -0.2718
     54  CB       -14.3250  -26.1400   10.7730 C.3   121  VAL121      0.0266
     55  CG1      -15.2520  -26.1860    9.5650 C.3   121  VAL121      0.0020
     56  CG2      -14.9780  -26.8320   11.9740 C.3   121  VAL121      0.0020
     57  N        -11.8920  -24.9730    9.1830 N.am  122  SER122     -0.1952
     58  CA       -11.2110  -24.3280    8.0570 C.3   122  SER122      0.1924
     59  C         -9.9780  -25.1320    7.6110 C.2   122  SER122      0.2314
     60  O         -9.8150  -25.3880    6.4160 O.2   122  SER122     -0.2863
     61  CB       -10.8290  -22.8800    8.4040 C.3   122  SER122      0.2116
     62  OG       -10.2120  -22.2240    7.3070 O.3   122  SER122     -0.2180
     63  N        -10.0340  -28.8970    5.6840 N.3   125  ARG125     -0.1245
     64  CA       -10.4390  -28.9060    4.2730 C.3   125  ARG125      0.1563
     65  C         -9.3610  -29.5200    3.3700 C.2   125  ARG125      0.2260
     66  O         -9.6720  -30.3160    2.4850 O.2   125  ARG125     -0.2867
     67  CB       -10.8210  -27.4950    3.8030 C.3   125  ARG125      0.0307
     68  CG       -12.0130  -26.9060    4.5710 C.3   125  ARG125      0.0489
     69  CD       -12.5290  -25.6010    3.9550 C.3   125  ARG125      0.2205
     70  NE       -11.6010  -24.4840    4.1140 N.pl3 125  ARG125     -0.0865
     71  CZ       -11.7460  -23.2990    3.5150 C.cat 125  ARG125      0.5346
     72  NH1      -10.8490  -22.3440    3.7220 N.pl3 125  ARG125      0.1354
     73  NH2      -12.7670  -23.0700    2.6980 N.pl3 125  ARG125      0.1354
     74  N        -14.6590  -20.9190   -0.2650 N.3   143  ASP143     -0.1225
     75  CA       -15.4770  -20.6610    0.9190 C.3   143  ASP143      0.1805
     76  C        -16.9610  -20.6420    0.5410 C.2   143  ASP143      0.2598
     77  O        -17.3100  -20.2710   -0.5900 O.2   143  ASP143     -0.2718
     78  CB       -15.1150  -19.3050    1.5230 C.3   143  ASP143      0.1424
     79  CG       -13.9080  -19.3650    2.4420 C.2   143  ASP143      0.3668
     80  OD1      -13.1300  -20.3450    2.4040 O.co2 143  ASP143     -0.2456
     81  OD2      -13.7510  -18.4080    3.2180 O.co2 143  ASP143     -0.2456
     82  N        -17.8080  -21.0090    1.5050 N.am  144  VAL144     -0.1966
     83  CA       -19.2540  -21.0480    1.3070 C.3   144  VAL144      0.1727
     84  C        -19.9540  -19.7190    1.6840 C.2   144  VAL144      0.2616
     85  O        -21.0760  -19.4790    1.2430 O.2   144  VAL144     -0.2715
     86  CB       -19.8700  -22.2360    2.0960 C.3   144  VAL144      0.0290
     87  CG1      -19.8240  -21.9780    3.6230 C.3   144  VAL144      0.0023
     88  CG2      -21.2930  -22.5460    1.6240 C.3   144  VAL144      0.0023
     89  N        -19.3040  -18.8750    2.5030 N.am  145  ASP145     -0.1971
     90  CA       -19.9450  -17.6220    2.9850 C.3   145  ASP145      0.1709
     91  C        -19.7710  -16.5070    1.9170 C.2   145  ASP145      0.2293
     92  O        -19.1980  -15.4310    2.1690 O.2   145  ASP145     -0.2864
     93  CB       -19.3810  -17.1980    4.3490 C.3   145  ASP145      0.1436
     94  CG       -17.8760  -17.0090    4.3060 C.2   145  ASP145      0.3671
     95  OD1      -17.1550  -17.8140    3.6610 O.co2 145  ASP145     -0.2456
     96  OD2      -17.3850  -15.9830    4.7980 O.co2 145  ASP145     -0.2456
     97  N        -21.3730  -11.4970    7.6700 N.3   278  LYS278     -0.1245
     98  CA       -21.6670  -12.4450    8.7340 C.3   278  LYS278      0.1561
     99  C        -21.1370  -11.8840   10.0580 C.2   278  LYS278      0.2260
    100  O        -20.4570  -10.8450   10.0850 O.2   278  LYS278     -0.2867
    101  CB       -21.0440  -13.8190    8.4320 C.3   278  LYS278      0.0271
    102  CG       -19.5070  -13.8570    8.4240 C.3   278  LYS278      0.0035
    103  CD       -18.9790  -15.2540    8.0870 C.3   278  LYS278      0.0206
    104  CE       -17.4490  -15.3550    8.2610 C.3   278  LYS278      0.1093
    105  NZ       -16.7180  -14.4100    7.3550 N.3   278  LYS278     -0.1314
@<TRIPOS>BOND
     1    77    76    2
     2    74    75    1
     3    76    75    1
     4    76    82   am
     5    75    78    1
     6    85    84    2
     7    83    82    1
     8    83    84    1
     9    83    86    1
    10    78    79    1
    11    88    86    1
    12     9     7   ar
    13     9    11   ar
    14    84    89   am
    15     1     2    1
    16    91    92    2
    17    91    90    1
    18    86    87    1
    19     7     6   ar
    20    11    10   ar
    21    80    79   ar
    22    79    81   ar
    23    66    65    2
    24    89    90    1
    25    73    71    1
    26    90    93    1
    27     2     3    1
    28     2     5    1
    29    65    64    1
    30     6     5    1
    31     6     8   ar
    32    71    72    1
    33    71    70    2
    34    10     8   ar
    35    95    94   ar
    36    67    64    1
    37    67    68    1
    38     3     4    2
    39    69    70    1
    40    69    68    1
    41    64    63    1
    42    94    93    1
    43    94    96   ar
    44    41    40    2
    45    60    59    2
    46    40    39    1
    47    44    46   ar
    48    44    43   ar
    49    62    61    1
    50   105   104    1
    51    42    39    1
    52    42    43    1
    53    12    13    1
    54    59    58    1
    55    19    17    1
    56    97    98    1
    57    46    48   ar
    58    39    38    1
    59    43    45   ar
    60    53    52    2
    61    58    61    1
    62    58    57    1
    63    17    16    1
    64   103   104    1
    65   103   102    1
    66   102   101    1
    67   101    98    1
    68    13    16    1
    69    13    14    1
    70    98    99    1
    71    48    49    1
    72    48    47   ar
    73    52    57   am
    74    52    51    1
    75    38    31   am
    76    16    18    1
    77    32    31    2
    78    45    47   ar
    79    55    54    1
    80    31    30    1
    81    14    15    2
    82    14    20   am
    83    99   100    2
    84    23    22    2
    85    51    54    1
    86    51    50    1
    87    20    21    1
    88    54    56    1
    89    22    29   am
    90    22    21    1
    91    30    29    1
    92    30    33    1
    93    21    24    1
    94    33    34    1
    95    24    25    1
    96    25    26    1
    97    34    35    1
    98    27    26    1
    99    27    28    1
   100    35    36    1
   101    36    37    1
