@<TRIPOS>MOLECULE
tmp/2rjfC00.pdb
 107 108 0 0 0
SMALL
GASTEIGER

@<TRIPOS>ATOM
      1  N         22.4400   15.3810  -22.9600 N.3   156  LEU156     -0.1245
      2  CA        21.1200   14.9810  -23.4390 C.3   156  LEU156      0.1561
      3  C         21.0940   13.5000  -23.7340 C.2   156  LEU156      0.2260
      4  O         21.9550   13.0040  -24.4340 O.2   156  LEU156     -0.2867
      5  CB        20.6810   15.7310  -24.7270 C.3   156  LEU156      0.0270
      6  CG        20.6850   17.2520  -24.6830 C.3   156  LEU156      0.0019
      7  CD1       20.4120   17.7690  -26.0730 C.3   156  LEU156      0.0001
      8  CD2       19.6720   17.8000  -23.6020 C.3   156  LEU156      0.0001
      9  N         16.0270   14.2090  -36.2180 N.3   177  TRP177     -0.1227
     10  CA        17.1580   15.1510  -36.2950 C.3   177  TRP177      0.1737
     11  C         18.0160   14.8210  -37.5060 C.2   177  TRP177      0.2595
     12  O         17.9120   13.7280  -38.0350 O.2   177  TRP177     -0.2718
     13  CB        18.0330   15.0500  -35.0420 C.3   177  TRP177      0.0564
     14  CG        17.3440   15.6050  -33.7840 C.ar  177  TRP177      0.0003
     15  CD1       16.6570   14.8790  -32.8660 C.ar  177  TRP177      0.0946
     16  CD2       17.2850   16.9790  -33.3300 C.ar  177  TRP177      0.0152
     17  NE1       16.1710   15.6920  -31.8870 N.ar  177  TRP177     -0.2442
     18  CE2       16.5700   16.9820  -32.1240 C.ar  177  TRP177      0.0810
     19  CE3       17.7880   18.1950  -33.8190 C.ar  177  TRP177      0.0012
     20  CZ2       16.3430   18.1580  -31.3660 C.ar  177  TRP177      0.0191
     21  CZ3       17.5620   19.3490  -33.1080 C.ar  177  TRP177      0.0001
     22  CH2       16.8310   19.3310  -31.8720 C.ar  177  TRP177      0.0015
     23  N         18.8830   15.7550  -37.9200 N.am  178  ASP178     -0.1974
     24  CA        19.8140   15.5100  -39.0490 C.3   178  ASP178      0.1709
     25  C         20.5860   14.1830  -38.8850 C.2   178  ASP178      0.2293
     26  O         20.9150   13.7690  -37.7700 O.2   178  ASP178     -0.2864
     27  CB        20.8130   16.6670  -39.1630 C.3   178  ASP178      0.1436
     28  CG        21.4360   16.7600  -40.5380 C.2   178  ASP178      0.3671
     29  OD1       22.6440   16.4860  -40.6730 O.co2 178  ASP178     -0.2456
     30  OD2       20.7230   17.1070  -41.5120 O.co2 178  ASP178     -0.2456
     31  N         23.5740   13.8020  -39.4900 N.3   180  THR180     -0.1203
     32  CA        24.9610   14.0860  -39.0530 C.3   180  THR180      0.1994
     33  C         25.1370   13.8870  -37.5360 C.2   180  THR180      0.2617
     34  O         26.2570   13.8430  -37.0740 O.2   180  THR180     -0.2717
     35  CB        25.5180   15.4720  -39.5060 C.3   180  THR180      0.1784
     36  OG1       24.7150   16.5220  -38.9230 O.3   180  THR180     -0.2211
     37  CG2       25.5530   15.5820  -41.0460 C.3   180  THR180      0.0376
     38  N         24.0500   13.6850  -36.7840 N.am  181  TYR181     -0.1975
     39  CA        24.1730   13.2360  -35.3730 C.3   181  TYR181      0.1639
     40  C         24.3340   11.7350  -35.1670 C.2   181  TYR181      0.2290
     41  O         24.5350   11.3000  -34.0380 O.2   181  TYR181     -0.2864
     42  CB        22.9330   13.6590  -34.5810 C.3   181  TYR181      0.0560
     43  CG        22.7670   15.1250  -34.4000 C.ar  181  TYR181     -0.0198
     44  CD1       23.5100   15.8150  -33.4210 C.ar  181  TYR181     -0.0009
     45  CD2       21.8280   15.8430  -35.2010 C.ar  181  TYR181     -0.0009
     46  CE1       23.3020   17.2080  -33.2190 C.ar  181  TYR181      0.0417
     47  CE2       21.6470   17.1640  -35.0350 C.ar  181  TYR181      0.0417
     48  CZ        22.3600   17.8460  -34.0430 C.ar  181  TYR181      0.1957
     49  OH        22.1370   19.1720  -33.9330 O.3   181  TYR181     -0.2866
     50  N         15.0530   13.5000  -23.8000 N.3   206  THR206     -0.1218
     51  CA        14.8000   14.4390  -24.8890 C.3   206  THR206      0.1862
     52  C         14.0120   13.7150  -26.0210 C.2   206  THR206      0.2287
     53  O         14.5270   12.7930  -26.6030 O.2   206  THR206     -0.2866
     54  CB        16.1060   15.0040  -25.4080 C.3   206  THR206      0.1770
     55  OG1       16.8180   15.5490  -24.3110 O.3   206  THR206     -0.2211
     56  CG2       15.8600   16.0640  -26.4620 C.3   206  THR206      0.0375
     57  N         12.8140   15.5610  -32.4030 N.3   209  GLN209     -0.1231
     58  CA        12.7130   16.9850  -32.6830 C.3   209  GLN209      0.1698
     59  C         11.2580   17.3530  -32.9580 C.2   209  GLN209      0.2592
     60  O         10.5840   16.7290  -33.8030 O.2   209  GLN209     -0.2718
     61  CB        13.6060   17.4070  -33.8550 C.3   209  GLN209      0.0381
     62  CG        13.6420   18.9320  -33.9940 C.3   209  GLN209      0.0905
     63  CD        14.3320   19.4490  -35.1940 C.2   209  GLN209      0.2608
     64  OE1       14.8530   18.6920  -36.0380 O.2   209  GLN209     -0.2717
     65  NE2       14.3600   20.7540  -35.3080 N.am  209  GLN209     -0.0878
     66  N         10.7770   18.3570  -32.2180 N.am  210  ASP210     -0.1960
     67  CA         9.4590   18.9610  -32.4220 C.3   210  ASP210      0.1840
     68  C          8.3100   17.9490  -32.3230 C.2   210  ASP210      0.2622
     69  O          7.3590   17.9920  -33.1130 O.2   210  ASP210     -0.2715
     70  CB         9.4130   19.7100  -33.7730 C.3   210  ASP210      0.1450
     71  CG         8.3500   20.8290  -33.7900 C.2   210  ASP210      0.3671
     72  OD1        8.0070   21.3770  -32.7070 O.co2 210  ASP210     -0.2456
     73  OD2        7.8470   21.1840  -34.8890 O.co2 210  ASP210     -0.2456
     74  N          8.4420   16.9980  -31.4010 N.am  211  TYR211     -0.1960
     75  CA         7.4000   16.0440  -31.1110 C.3   211  TYR211      0.1756
     76  C          6.1930   16.8580  -30.5790 C.2   211  TYR211      0.2461
     77  O          6.4030   17.6930  -29.7010 O.2   211  TYR211     -0.2730
     78  CB         7.8910   15.1240  -30.0130 C.3   211  TYR211      0.0574
     79  CG         6.9710   13.9750  -29.8110 C.ar  211  TYR211     -0.0198
     80  CD1        6.9280   12.9420  -30.7470 C.ar  211  TYR211     -0.0009
     81  CD2        6.1100   13.9210  -28.7040 C.ar  211  TYR211     -0.0009
     82  CE1        6.0440   11.8810  -30.5990 C.ar  211  TYR211      0.0417
     83  CE2        5.2370   12.8360  -28.5370 C.ar  211  TYR211      0.0417
     84  CZ         5.2160   11.8120  -29.4940 C.ar  211  TYR211      0.1957
     85  OH         4.3410   10.7120  -29.3780 O.3   211  TYR211     -0.2866
     86  N          4.9510   16.6260  -31.0940 N.am  212  PRO212     -0.2716
     87  CA         3.8140   17.4860  -30.6400 C.3   212  PRO212      0.1536
     88  C          3.4290   17.1470  -29.2030 C.2   212  PRO212      0.2599
     89  O          3.1890   15.9900  -28.8860 O.2   212  PRO212     -0.2715
     90  CB         2.6720   17.1700  -31.6340 C.3   212  PRO212      0.0310
     91  CG         3.2210   16.1590  -32.6210 C.3   212  PRO212      0.0237
     92  CD         4.5050   15.5880  -32.0440 C.3   212  PRO212      0.0939
     93  N          3.4340   18.1460  -28.3290 N.am  213  ASP213     -0.1959
     94  CA         3.2900   17.9170  -26.8760 C.3   213  ASP213      0.1825
     95  C          4.4410   17.0360  -26.3750 C.2   213  ASP213      0.2464
     96  O          4.2660   15.8280  -26.2160 O.2   213  ASP213     -0.2730
     97  CB         1.9250   17.2650  -26.5530 C.3   213  ASP213      0.1450
     98  CG         1.4690   17.5230  -25.1230 C.2   213  ASP213      0.3671
     99  OD1        2.1570   18.2710  -24.3800 O.co2 213  ASP213     -0.2456
    100  OD2        0.4070   16.9800  -24.7440 O.co2 213  ASP213     -0.2456
    101  N          5.6320   17.6290  -26.1630 N.am  214  PRO214     -0.2727
    102  CA         6.7720   16.7890  -25.7730 C.3   214  PRO214      0.1402
    103  C          6.7400   16.4910  -24.2750 C.2   214  PRO214      0.2269
    104  O          7.4590   15.6060  -23.7960 O.2   214  PRO214     -0.2865
    105  CB         8.0010   17.6500  -26.1380 C.3   214  PRO214      0.0296
    106  CG         7.4600   19.0000  -26.6160 C.3   214  PRO214      0.0237
    107  CD         6.0040   19.0540  -26.2480 C.3   214  PRO214      0.0939
@<TRIPOS>BOND
     1    30    28   ar
     2    37    35    1
     3    29    28   ar
     4    28    27    1
     5    35    32    1
     6    35    36    1
     7    31    32    1
     8    27    24    1
     9    32    33    1
    10    24    25    1
    11    24    23    1
    12    25    26    2
    13    12    11    2
    14    23    11   am
    15    33    34    2
    16    33    38   am
    17    11    10    1
    18    38    39    1
    19    10     9    1
    20    10    13    1
    21    64    63    2
    22    39    40    1
    23    39    42    1
    24    65    63   am
    25    45    47   ar
    26    45    43   ar
    27    63    62    1
    28    40    41    2
    29    13    14    1
    30    47    48   ar
    31    73    71   ar
    32    42    43    1
    33    43    44   ar
    34    48    49    1
    35    48    46   ar
    36    62    61    1
    37    61    58    1
    38    19    16   ar
    39    19    21   ar
    40    60    59    2
    41    71    70    1
    42    71    72   ar
    43    14    16   ar
    44    14    15   ar
    45    70    67    1
    46    44    46   ar
    47    16    18   ar
    48    69    68    2
    49    21    22   ar
    50    59    58    1
    51    59    66   am
    52    15    17   ar
    53    58    57    1
    54    91    92    1
    55    91    90    1
    56    67    68    1
    57    67    66    1
    58    68    74   am
    59    18    17   ar
    60    18    20   ar
    61    92    86    1
    62    22    20   ar
    63    90    87    1
    64    74    75    1
    65    75    76    1
    66    75    78    1
    67    86    87    1
    68    86    76   am
    69    80    82   ar
    70    80    79   ar
    71    87    88    1
    72    82    84   ar
    73    76    77    2
    74    78    79    1
    75    79    81   ar
    76    84    85    1
    77    84    83   ar
    78    88    89    2
    79    88    93   am
    80    81    83   ar
    81    93    94    1
    82    94    97    1
    83    94    95    1
    84   106   107    1
    85   106   105    1
    86    53    52    2
    87    97    98    1
    88    56    54    1
    89    95    96    2
    90    95   101   am
    91   107   101    1
    92   101   102    1
    93   105   102    1
    94     7     6    1
    95    52    51    1
    96   102   103    1
    97    54    51    1
    98    54    55    1
    99    98   100   ar
   100    98    99   ar
   101    51    50    1
   102     5     6    1
   103     5     2    1
   104     6     8    1
   105     4     3    2
   106   103   104    2
   107     3     2    1
   108     2     1    1
