@<TRIPOS>MOLECULE
tmp/2rjfA00.pdb
 88 87 0 0 0
SMALL
GASTEIGER

@<TRIPOS>ATOM
      1  N          8.3340   23.7790  -17.6690 N.3   156  LEU156     -0.1245
      2  CA         9.6720   24.3570  -17.4990 C.3   156  LEU156      0.1561
      3  C          9.6260   25.3150  -16.3110 C.2   156  LEU156      0.2260
      4  O          8.7490   26.1660  -16.2480 O.2   156  LEU156     -0.2867
      5  CB        10.0740   25.1790  -18.7450 C.3   156  LEU156      0.0270
      6  CG        10.0980   24.5100  -20.1030 C.3   156  LEU156      0.0019
      7  CD1       10.5770   25.5230  -21.2090 C.3   156  LEU156      0.0001
      8  CD2       11.0360   23.3330  -20.0180 C.3   156  LEU156      0.0001
      9  N         14.6550   36.1210  -22.4030 N.3   177  TRP177     -0.1227
     10  CA        13.5600   35.7830  -23.2880 C.3   177  TRP177      0.1737
     11  C         12.7150   37.0160  -23.4510 C.2   177  TRP177      0.2595
     12  O         12.7580   38.0010  -22.6840 O.2   177  TRP177     -0.2718
     13  CB        12.6910   34.6250  -22.7720 C.3   177  TRP177      0.0564
     14  CG        13.3850   33.3390  -22.6510 C.ar  177  TRP177      0.0003
     15  CD1       14.0290   32.8800  -21.5670 C.ar  177  TRP177      0.0946
     16  CD2       13.4840   32.2900  -23.6500 C.ar  177  TRP177      0.0152
     17  NE1       14.5400   31.6380  -21.8100 N.ar  177  TRP177     -0.2442
     18  CE2       14.1900   31.2260  -23.0590 C.ar  177  TRP177      0.0810
     19  CE3       13.0000   32.1410  -24.9610 C.ar  177  TRP177      0.0012
     20  CZ2       14.4920   30.0270  -23.7480 C.ar  177  TRP177      0.0191
     21  CZ3       13.2990   30.9510  -25.6490 C.ar  177  TRP177      0.0001
     22  CH2       14.0310   29.9090  -25.0300 C.ar  177  TRP177      0.0015
     23  N         11.8540   36.9900  -24.4280 N.am  178  ASP178     -0.1974
     24  CA        11.2050   38.2220  -24.6490 C.3   178  ASP178      0.1709
     25  C         10.0970   38.5540  -23.6030 C.2   178  ASP178      0.2293
     26  O          9.6350   37.6590  -22.8630 O.2   178  ASP178     -0.2864
     27  CB        10.8880   38.3360  -26.1130 C.3   178  ASP178      0.1436
     28  CG         9.5000   38.2850  -26.3950 C.2   178  ASP178      0.3671
     29  OD1        8.9090   37.2430  -26.0120 O.co2 178  ASP178     -0.2456
     30  OD2        9.0440   39.2830  -26.9700 O.co2 178  ASP178     -0.2456
     31  N          6.5150   36.8370  -22.2230 N.3   181  TYR181     -0.1241
     32  CA         6.4100   35.7560  -21.2400 C.3   181  TYR181      0.1605
     33  C          6.2620   36.2520  -19.8220 C.2   181  TYR181      0.2264
     34  O          6.0370   35.4280  -18.9130 O.2   181  TYR181     -0.2867
     35  CB         7.6760   34.8280  -21.2440 C.3   181  TYR181      0.0534
     36  CG         7.8710   34.0240  -22.5060 C.ar  181  TYR181     -0.0201
     37  CD1        7.1490   32.8300  -22.7230 C.ar  181  TYR181     -0.0009
     38  CD2        8.8230   34.4200  -23.4530 C.ar  181  TYR181     -0.0009
     39  CE1        7.3970   32.0050  -23.9230 C.ar  181  TYR181      0.0417
     40  CE2        9.0350   33.6850  -24.6180 C.ar  181  TYR181      0.0417
     41  CZ         8.3190   32.4670  -24.8310 C.ar  181  TYR181      0.1957
     42  OH         8.5430   31.7410  -25.9690 O.3   181  TYR181     -0.2866
     43  N         15.7540   25.5670  -16.3090 N.3   206  THR206     -0.1218
     44  CA        16.0130   26.0690  -17.6600 C.3   206  THR206      0.1862
     45  C         16.8000   27.3880  -17.4730 C.2   206  THR206      0.2287
     46  O         16.2670   28.3570  -16.9360 O.2   206  THR206     -0.2866
     47  CB        14.6600   26.3010  -18.3840 C.3   206  THR206      0.1770
     48  OG1       13.9200   25.0740  -18.3730 O.3   206  THR206     -0.2211
     49  CG2       14.7960   26.8310  -19.8320 C.3   206  THR206      0.0375
     50  N         17.9070   32.0650  -21.9520 N.3   209  GLN209     -0.1231
     51  CA        18.0310   31.7130  -23.3680 C.3   209  GLN209      0.1698
     52  C         19.4650   31.8400  -23.8270 C.2   209  GLN209      0.2592
     53  O         20.1260   32.8440  -23.5420 O.2   209  GLN209     -0.2718
     54  CB        17.1390   32.5770  -24.2610 C.3   209  GLN209      0.0381
     55  CG        17.2730   32.2000  -25.7460 C.3   209  GLN209      0.0905
     56  CD        16.3890   32.9980  -26.6330 C.2   209  GLN209      0.2608
     57  OE1       15.9670   34.1190  -26.2930 O.2   209  GLN209     -0.2717
     58  NE2       16.0930   32.4500  -27.7890 N.am  209  GLN209     -0.0878
     59  N         19.9310   30.8020  -24.5180 N.am  210  ASP210     -0.1974
     60  CA        21.2730   30.7030  -25.1000 C.3   210  ASP210      0.1709
     61  C         22.3770   30.9900  -24.0680 C.2   210  ASP210      0.2293
     62  O         23.3890   31.6110  -24.3940 O.2   210  ASP210     -0.2864
     63  CB        21.4030   31.6130  -26.3480 C.3   210  ASP210      0.1436
     64  CG        22.3650   31.0480  -27.4400 C.2   210  ASP210      0.3671
     65  OD1       22.8080   29.8520  -27.4250 O.co2 210  ASP210     -0.2456
     66  OD2       22.6990   31.8400  -28.3460 O.co2 210  ASP210     -0.2456
     67  N         25.7840   30.6200  -22.2410 N.3   212  PRO212     -0.2102
     68  CA        26.9320   29.8870  -22.8300 C.3   212  PRO212      0.1504
     69  C         27.2910   28.6650  -21.9900 C.2   212  PRO212      0.2576
     70  O         27.6550   28.7950  -20.8170 O.2   212  PRO212     -0.2718
     71  CB        28.0750   30.9170  -22.8560 C.3   212  PRO212      0.0282
     72  CG        27.5070   32.2040  -22.3040 C.3   212  PRO212      0.0208
     73  CD        26.2010   31.9000  -21.6290 C.3   212  PRO212      0.0893
     74  N         27.1300   27.4770  -22.5810 N.am  213  ASP213     -0.1961
     75  CA        27.2930   26.2320  -21.8250 C.3   213  ASP213      0.1825
     76  C         26.2800   26.1340  -20.6510 C.2   213  ASP213      0.2464
     77  O         26.6550   26.3440  -19.4880 O.2   213  ASP213     -0.2730
     78  CB        28.7350   26.1410  -21.3200 C.3   213  ASP213      0.1450
     79  CG        29.0060   24.7980  -20.6050 C.2   213  ASP213      0.3671
     80  OD1       28.5120   23.7460  -21.1660 O.co2 213  ASP213     -0.2456
     81  OD2       29.7250   24.7980  -19.5050 O.co2 213  ASP213     -0.2456
     82  N         25.0120   25.7660  -20.9670 N.am  214  PRO214     -0.2727
     83  CA        23.7950   25.8310  -20.1270 C.3   214  PRO214      0.1402
     84  C         23.6870   24.7370  -19.0450 C.2   214  PRO214      0.2269
     85  O         22.8990   24.8630  -18.0600 O.2   214  PRO214     -0.2865
     86  CB        22.6490   25.6600  -21.1530 C.3   214  PRO214      0.0296
     87  CG        23.2880   25.5980  -22.5210 C.3   214  PRO214      0.0237
     88  CD        24.7120   25.1940  -22.3000 C.3   214  PRO214      0.0939
@<TRIPOS>BOND
     1    66    64   ar
     2    58    56   am
     3    64    65   ar
     4    64    63    1
     5    30    28   ar
     6    56    57    2
     7    56    55    1
     8    28    27    1
     9    28    29   ar
    10    63    60    1
    11    27    24    1
    12    42    41    1
    13    55    54    1
    14    21    22   ar
    15    21    19   ar
    16    60    59    1
    17    60    61    1
    18    22    20   ar
    19    19    16   ar
    20    41    40   ar
    21    41    39   ar
    22    24    23    1
    23    24    25    1
    24    40    38   ar
    25    59    52   am
    26    23    11   am
    27    62    61    2
    28    54    51    1
    29    39    37   ar
    30    52    53    2
    31    52    51    1
    32    20    18   ar
    33    16    18   ar
    34    16    14   ar
    35    25    26    2
    36    38    36   ar
    37    11    10    1
    38    11    12    2
    39    51    50    1
    40    10    13    1
    41    10     9    1
    42    18    17   ar
    43    71    68    1
    44    71    72    1
    45    68    67    1
    46    68    69    1
    47    13    14    1
    48    37    36   ar
    49    14    15   ar
    50    74    69   am
    51    74    75    1
    52    87    88    1
    53    87    86    1
    54    36    35    1
    55    72    73    1
    56    88    82    1
    57    67    73    1
    58    31    32    1
    59    69    70    2
    60    75    78    1
    61    75    76    1
    62    17    15   ar
    63    78    79    1
    64    35    32    1
    65    32    33    1
    66     7     6    1
    67    80    79   ar
    68    86    83    1
    69    82    76   am
    70    82    83    1
    71    76    77    2
    72    79    81   ar
    73    83    84    1
    74     6     8    1
    75     6     5    1
    76    49    47    1
    77    33    34    2
    78    84    85    2
    79     5     2    1
    80    47    48    1
    81    47    44    1
    82     1     2    1
    83    44    45    1
    84    44    43    1
    85     2     3    1
    86    45    46    2
    87     3     4    2
