@<TRIPOS>MOLECULE
tmp/2rjhB01.pdb
 121 113 0 0 0
SMALL
GASTEIGER

@<TRIPOS>ATOM
      1  N         55.9500   -6.4680  -32.3750 N.3    32  VAL32      -0.1245
      2  CA        55.6510   -5.2580  -31.6090 C.3    32  VAL32       0.1561
      3  C         56.0240   -5.4510  -30.1360 C.2    32  VAL32       0.2260
      4  O         55.3620   -6.1690  -29.3890 O.2    32  VAL32      -0.2867
      5  CB        54.1540   -4.8630  -31.7530 C.3    32  VAL32       0.0252
      6  CG1       53.8710   -3.5930  -30.9610 C.3    32  VAL32       0.0019
      7  CG2       53.8090   -4.6520  -33.2250 C.3    32  VAL32       0.0019
      8  N         56.7030   -2.6900  -27.9260 N.3    34  LYS34      -0.1245
      9  CA        56.5550   -1.4320  -27.1990 C.3    34  LYS34       0.1561
     10  C         55.9430   -1.6420  -25.8100 C.2    34  LYS34       0.2260
     11  O         55.3650   -2.6930  -25.5360 O.2    34  LYS34      -0.2867
     12  CB        55.6960   -0.4590  -28.0210 C.3    34  LYS34       0.0271
     13  CG        54.3060   -1.0230  -28.3260 C.3    34  LYS34       0.0035
     14  CD        53.5870   -0.1390  -29.3470 C.3    34  LYS34       0.0206
     15  CE        52.1590   -0.6140  -29.6240 C.3    34  LYS34       0.1093
     16  NZ        51.2700   -0.4850  -28.4600 N.3    34  LYS34      -0.1314
     17  N         54.8940   -5.2350  -23.8160 N.3    38  TYR38      -0.1241
     18  CA        53.5910   -5.5300  -23.2150 C.3    38  TYR38       0.1605
     19  C         53.7550   -6.1430  -21.8230 C.2    38  TYR38       0.2264
     20  O         52.9650   -6.9920  -21.4120 O.2    38  TYR38      -0.2867
     21  CB        52.7890   -6.4860  -24.1170 C.3    38  TYR38       0.0534
     22  CG        52.1910   -5.8520  -25.3710 C.ar   38  TYR38      -0.0201
     23  CD1       52.9350   -4.9730  -26.1650 C.ar   38  TYR38      -0.0009
     24  CD2       50.8860   -6.1480  -25.7770 C.ar   38  TYR38      -0.0009
     25  CE1       52.3990   -4.4010  -27.3320 C.ar   38  TYR38       0.0417
     26  CE2       50.3420   -5.5830  -26.9440 C.ar   38  TYR38       0.0417
     27  CZ        51.1040   -4.7140  -27.7120 C.ar   38  TYR38       0.1957
     28  OH        50.5880   -4.1560  -28.8630 O.3    38  TYR38      -0.2866
     29  N         56.5970    3.1970  -34.8970 N.3    78  LEU78      -0.1245
     30  CA        55.1750    3.2510  -35.2190 C.3    78  LEU78       0.1561
     31  C         54.5270    4.6460  -35.1650 C.2    78  LEU78       0.2260
     32  O         53.5490    4.9030  -35.8640 O.2    78  LEU78      -0.2867
     33  CB        54.4120    2.2880  -34.3010 C.3    78  LEU78       0.0270
     34  CG        54.8700    0.8140  -34.3710 C.3    78  LEU78       0.0019
     35  CD1       54.2050    0.0010  -33.2680 C.3    78  LEU78       0.0001
     36  CD2       54.5490    0.2390  -35.7440 C.3    78  LEU78       0.0001
     37  N         43.3030    8.5030  -35.5010 N.3   128  ARG128     -0.1245
     38  CA        44.2050    8.7210  -34.3850 C.3   128  ARG128      0.1563
     39  C         45.4170    9.4260  -35.0050 C.2   128  ARG128      0.2260
     40  O         45.5620   10.6390  -34.8700 O.2   128  ARG128     -0.2867
     41  CB        44.6380    7.3990  -33.7620 C.3   128  ARG128      0.0307
     42  CG        45.5300    7.6560  -32.5470 C.3   128  ARG128      0.0489
     43  CD        46.5080    6.4900  -32.4050 C.3   128  ARG128      0.2205
     44  NE        46.1820    5.3990  -31.5710 N.pl3 128  ARG128     -0.0865
     45  CZ        46.5120    4.1160  -31.6690 C.cat 128  ARG128      0.5346
     46  NH1       46.0770    3.3750  -30.6800 N.pl3 128  ARG128      0.1354
     47  NH2       47.1680    3.5500  -32.6820 N.pl3 128  ARG128      0.1354
     48  N         51.6290    2.3790  -44.3210 N.3   156  VAL156     -0.1245
     49  CA        51.1130    1.7190  -43.1170 C.3   156  VAL156      0.1561
     50  C         49.8350    2.3590  -42.5680 C.2   156  VAL156      0.2260
     51  O         49.6280    3.5660  -42.6880 O.2   156  VAL156     -0.2867
     52  CB        52.1860    1.7000  -41.9760 C.3   156  VAL156      0.0252
     53  CG1       52.4080    3.1010  -41.4310 C.3   156  VAL156      0.0019
     54  CG2       51.7590    0.7760  -40.8660 C.3   156  VAL156      0.0019
     55  N         46.3260    1.2950  -39.5070 N.3   158  HIS158     -0.1241
     56  CA        45.9590    0.4460  -38.3730 C.3   158  HIS158      0.1621
     57  C         44.4330    0.3760  -38.2080 C.2   158  HIS158      0.2264
     58  O         43.7310    1.3590  -38.4400 O.2   158  HIS158     -0.2867
     59  CB        46.6060    1.0270  -37.0940 C.3   158  HIS158      0.0745
     60  CG        46.5520    0.1190  -35.9000 C.ar  158  HIS158      0.0817
     61  ND1       47.0450   -1.1710  -35.9190 N.ar  158  HIS158     -0.2268
     62  CD2       46.0960    0.3280  -34.6420 C.ar  158  HIS158      0.1154
     63  CE1       46.8910   -1.7170  -34.7250 C.ar  158  HIS158      0.1986
     64  NE2       46.3170   -0.8280  -33.9320 N.ar  158  HIS158     -0.2212
     65  N         47.5370   -5.9680  -37.4360 N.3   192  ALA192     -0.1231
     66  CA        48.1890   -6.2940  -36.1740 C.3   192  ALA192      0.1694
     67  C         47.5110   -7.6070  -35.7320 C.2   192  ALA192      0.2593
     68  O         46.9730   -8.3270  -36.5720 O.2   192  ALA192     -0.2718
     69  CB        47.9470   -5.2000  -35.1550 C.3   192  ALA192      0.0304
     70  N         47.5170   -7.9230  -34.4380 N.am  193  SER193     -0.1938
     71  CA        46.8980   -9.1760  -33.9740 C.3   193  SER193      0.2055
     72  C         45.5250   -9.5230  -34.5880 C.2   193  SER193      0.2643
     73  O         45.3740  -10.5690  -35.2170 O.2   193  SER193     -0.2714
     74  CB        46.7690   -9.1830  -32.4510 C.3   193  SER193      0.2130
     75  OG        48.0350   -9.2850  -31.8610 O.3   193  SER193     -0.2179
     76  N         44.5340   -8.6520  -34.3840 N.am  194  GLY194     -0.1954
     77  CA        43.2000   -8.8880  -34.9210 C.3   194  GLY194      0.1869
     78  C         43.1490   -9.0640  -36.4310 C.2   194  GLY194      0.2309
     79  O         42.4580   -9.9500  -36.9320 O.2   194  GLY194     -0.2863
     80  N         51.9060   -6.8530  -38.1400 N.3   208  ARG208     -0.1245
     81  CA        52.5290   -6.4060  -36.8960 C.3   208  ARG208      0.1563
     82  C         51.9280   -7.0370  -35.6510 C.2   208  ARG208      0.2260
     83  O         51.1740   -6.3930  -34.9230 O.2   208  ARG208     -0.2867
     84  CB        52.3970   -4.8830  -36.7960 C.3   208  ARG208      0.0307
     85  CG        52.8410   -4.2180  -38.1000 C.3   208  ARG208      0.0489
     86  CD        52.7910   -2.6930  -37.9870 C.3   208  ARG208      0.2205
     87  NE        51.4720   -2.1820  -37.6070 N.pl3 208  ARG208     -0.0865
     88  CZ        50.4770   -1.9350  -38.4530 C.cat 208  ARG208      0.5346
     89  NH1       50.6300   -2.1490  -39.7480 N.pl3 208  ARG208      0.1354
     90  NH2       49.3310   -1.4570  -37.9910 N.pl3 208  ARG208      0.1354
     91  N         51.1790   -8.0380  -32.0120 N.3   210  GLY210     -0.1210
     92  CA        51.4690   -7.4870  -30.7070 C.3   210  GLY210      0.1956
     93  C         50.9140   -8.4230  -29.6410 C.2   210  GLY210      0.2611
     94  O         51.5670   -9.3910  -29.2520 O.2   210  GLY210     -0.2717
     95  N         49.6870   -8.1580  -29.1990 N.am  211  ILE211     -0.1979
     96  CA        49.0560   -8.9540  -28.1540 C.3   211  ILE211      0.1595
     97  C         49.1580  -10.4650  -28.3850 C.2   211  ILE211      0.2287
     98  O         49.6040  -11.2020  -27.5080 O.2   211  ILE211     -0.2864
     99  CB        47.5640   -8.5440  -27.9580 C.3   211  ILE211      0.0276
    100  CG1       46.9840   -9.2340  -26.7250 C.3   211  ILE211      0.0022
    101  CG2       46.7310   -8.9380  -29.1580 C.3   211  ILE211      0.0022
    102  CD1       47.3280   -8.5780  -25.4320 C.3   211  ILE211      0.0001
    103  N         43.3210  -10.8520  -28.7300 N.3   218  PRO218     -0.2116
    104  CA        43.0140   -9.4280  -28.9050 C.3   218  PRO218      0.1372
    105  C         41.5060   -9.1660  -28.8330 C.2   218  PRO218      0.2244
    106  O         41.0630   -8.0190  -28.8710 O.2   218  PRO218     -0.2868
    107  CB        43.5600   -9.1340  -30.2970 C.3   218  PRO218      0.0268
    108  CG        43.2700  -10.4010  -31.0220 C.3   218  PRO218      0.0207
    109  CD        43.6820  -11.4660  -30.0230 C.3   218  PRO218      0.0892
    110  N         45.0520   -6.3550  -22.4280 N.3   342  TYR342     -0.1241
    111  CA        46.1450   -5.4840  -22.8840 C.3   342  TYR342      0.1605
    112  C         46.7160   -4.7220  -21.7010 C.2   342  TYR342      0.2264
    113  O         47.9300   -4.6500  -21.5190 O.2   342  TYR342     -0.2867
    114  CB        45.6480   -4.4460  -23.9060 C.3   342  TYR342      0.0534
    115  CG        45.4260   -4.9320  -25.3250 C.ar  342  TYR342     -0.0201
    116  CD1       44.2610   -5.6070  -25.6840 C.ar  342  TYR342     -0.0009
    117  CD2       46.3680   -4.6660  -26.3280 C.ar  342  TYR342     -0.0009
    118  CE1       44.0330   -6.0020  -27.0080 C.ar  342  TYR342      0.0417
    119  CE2       46.1470   -5.0540  -27.6460 C.ar  342  TYR342      0.0417
    120  CZ        44.9790   -5.7210  -27.9790 C.ar  342  TYR342      0.1957
    121  OH        44.7700   -6.1000  -29.2920 O.3   342  TYR342     -0.2866
@<TRIPOS>BOND
     1    48    49    1
     2    49    50    1
     3    49    52    1
     4    51    50    2
     5    52    53    1
     6    52    54    1
     7    89    88    1
     8    55    56    1
     9    88    90    1
    10    88    87    2
    11    58    57    2
    12    56    57    1
    13    56    59    1
    14    80    81    1
    15    85    86    1
    16    85    84    1
    17    86    87    1
    18    65    66    1
    19    59    60    1
    20    79    78    2
    21    81    84    1
    22    81    82    1
    23    68    67    2
    24    78    77    1
    25    66    67    1
    26    66    69    1
    27    61    60   ar
    28    61    63   ar
    29    60    62   ar
    30    32    31    2
    31    36    34    1
    32    67    70   am
    33    82    83    2
    34    37    38    1
    35    30    31    1
    36    30    29    1
    37    30    33    1
    38    73    72    2
    39    39    40    2
    40    39    38    1
    41    77    76    1
    42    63    64   ar
    43    62    64   ar
    44    72    76   am
    45    72    71    1
    46    70    71    1
    47    38    41    1
    48    34    33    1
    49    34    35    1
    50    71    74    1
    51    41    42    1
    52     7     5    1
    53    47    45    1
    54    42    43    1
    55    74    75    1
    56    43    44    1
    57     1     2    1
    58    91    92    1
    59     5     2    1
    60     5     6    1
    61    45    44    2
    62    45    46    1
    63     2     3    1
    64   108   107    1
    65   108   109    1
    66    92    93    1
    67   107   104    1
    68     3     4    2
    69   109   103    1
    70    93    94    2
    71    93    95   am
    72    15    14    1
    73    15    16    1
    74    14    13    1
    75   121   120    1
    76    95    96    1
    77   101    99    1
    78   104   105    1
    79   104   103    1
    80   106   105    2
    81    28    27    1
    82    97    96    1
    83    97    98    2
    84    13    12    1
    85    96    99    1
    86    12     9    1
    87   120   119   ar
    88   120   118   ar
    89    99   100    1
    90     8     9    1
    91    27    25   ar
    92    27    26   ar
    93   119   117   ar
    94    25    23   ar
    95     9    10    1
    96   118   116   ar
    97    26    24   ar
    98   100   102    1
    99   117   115   ar
   100    23    22   ar
   101    10    11    2
   102    24    22   ar
   103   116   115   ar
   104    22    21    1
   105   115   114    1
   106    21    18    1
   107   114   111    1
   108    17    18    1
   109    18    19    1
   110   111   110    1
   111   111   112    1
   112    19    20    2
   113   112   113    2
