@<TRIPOS>MOLECULE
tmp/2rjoA00.pdb
 143 140 0 0 0
SMALL
GASTEIGER

@<TRIPOS>ATOM
      1  N         11.2560    2.6500   17.6660 N.3    11  ARG11      -0.1245
      2  CA        11.0160    2.6490   19.1020 C.3    11  ARG11       0.1563
      3  C         10.0590    3.7000   19.6700 C.2    11  ARG11       0.2260
      4  O          9.0530    3.3320   20.2730 O.2    11  ARG11      -0.2867
      5  CB        12.3550    2.6980   19.8480 C.3    11  ARG11       0.0307
      6  CG        12.3390    1.9560   21.1790 C.3    11  ARG11       0.0489
      7  CD        13.7150    1.8240   21.7920 C.3    11  ARG11       0.2205
      8  NE        14.6120    0.9330   21.0520 N.pl3  11  ARG11      -0.0865
      9  CZ        15.5220    1.3410   20.1740 C.cat  11  ARG11       0.5346
     10  NH1       15.6640    2.6370   19.9120 N.pl3  11  ARG11       0.1354
     11  NH2       16.3100    0.4550   19.5710 N.pl3  11  ARG11       0.1354
     12  N         11.6680   10.6790   21.0930 N.3    15  ASN15      -0.1240
     13  CA        13.0490   11.0060   20.7210 C.3    15  ASN15       0.1653
     14  C         12.9950   11.7470   19.3930 C.2    15  ASN15       0.2266
     15  O         12.5710   11.1790   18.3860 O.2    15  ASN15      -0.2867
     16  CB        13.8610    9.7140   20.5450 C.3    15  ASN15       0.1155
     17  CG        15.3260    9.9710   20.1700 C.2    15  ASN15       0.2627
     18  OD1       15.6640   11.0030   19.5940 O.2    15  ASN15      -0.2716
     19  ND2       16.1920    9.0140   20.4830 N.am   15  ASN15      -0.0877
     20  N         14.9690   12.1400   17.2230 N.3    17  TYR17      -0.1227
     21  CA        15.6210   11.3760   16.1680 C.3    17  TYR17       0.1736
     22  C         14.5380   10.6740   15.3430 C.2    17  TYR17       0.2595
     23  O         14.5280   10.7540   14.1190 O.2    17  TYR17      -0.2718
     24  CB        16.5690   10.3280   16.7680 C.3    17  TYR17       0.0548
     25  CG        17.0470    9.3230   15.7510 C.ar   17  TYR17      -0.0200
     26  CD1       18.1170    9.6080   14.9030 C.ar   17  TYR17      -0.0009
     27  CD2       16.3900    8.1060   15.5960 C.ar   17  TYR17      -0.0009
     28  CE1       18.5210    8.6950   13.9160 C.ar   17  TYR17       0.0417
     29  CE2       16.7780    7.1910   14.6160 C.ar   17  TYR17       0.0417
     30  CZ        17.8410    7.4860   13.7790 C.ar   17  TYR17       0.1957
     31  OH        18.2120    6.5720   12.8150 O.3    17  TYR17      -0.2866
     32  N         13.6320    9.9920   16.0340 N.am   18  TYR18      -0.1976
     33  CA        12.5470    9.2580   15.4000 C.3    18  TYR18       0.1639
     34  C         11.4310   10.1500   14.8820 C.2    18  TYR18       0.2290
     35  O         10.6660    9.7400   14.0050 O.2    18  TYR18      -0.2864
     36  CB        11.9790    8.2180   16.3750 C.3    18  TYR18       0.0560
     37  CG        12.8950    7.0320   16.5660 C.ar   18  TYR18      -0.0198
     38  CD1       13.3350    6.6570   17.8350 C.ar   18  TYR18      -0.0009
     39  CD2       13.3320    6.2830   15.4720 C.ar   18  TYR18      -0.0009
     40  CE1       14.1930    5.5590   18.0100 C.ar   18  TYR18       0.0417
     41  CE2       14.1870    5.1860   15.6360 C.ar   18  TYR18       0.0417
     42  CZ        14.6120    4.8320   16.9090 C.ar   18  TYR18       0.1957
     43  OH        15.4540    3.7550   17.0790 O.3    18  TYR18      -0.2866
     44  N         13.6830   -0.0780   12.1900 N.3    68  ASP68      -0.1239
     45  CA        14.8240    0.1180   13.0800 C.3    68  ASP68       0.1674
     46  C         14.4890   -0.8570   14.2230 C.2    68  ASP68       0.2266
     47  O         13.7590   -0.5040   15.1450 O.2    68  ASP68      -0.2867
     48  CB        14.8260    1.5650   13.6030 C.3    68  ASP68       0.1410
     49  CG        15.9910    1.8670   14.5480 C.2    68  ASP68       0.3668
     50  OD1       16.4930    0.9460   15.2290 O.co2  68  ASP68      -0.2456
     51  OD2       16.3980    3.0460   14.6230 O.co2  68  ASP68      -0.2456
     52  N         20.2910    0.1560   11.5740 N.3    93  TRP93      -0.1227
     53  CA        21.0020    0.0310   12.8460 C.3    93  TRP93       0.1737
     54  C         21.1930   -1.3440   13.4900 C.2    93  TRP93       0.2595
     55  O         22.3150   -1.8290   13.5870 O.2    93  TRP93      -0.2718
     56  CB        20.3550    0.9420   13.9050 C.3    93  TRP93       0.0564
     57  CG        20.5410    2.4410   13.7060 C.ar   93  TRP93       0.0003
     58  CD1       19.5590    3.3860   13.6710 C.ar   93  TRP93       0.0946
     59  CD2       21.7790    3.1480   13.5220 C.ar   93  TRP93       0.0152
     60  NE1       20.1030    4.6360   13.4720 N.ar   93  TRP93      -0.2442
     61  CE2       21.4610    4.5190   13.3790 C.ar   93  TRP93       0.0810
     62  CE3       23.1190    2.7580   13.4640 C.ar   93  TRP93       0.0012
     63  CZ2       22.4410    5.4960   13.1800 C.ar   93  TRP93       0.0191
     64  CZ3       24.0980    3.7400   13.2620 C.ar   93  TRP93       0.0001
     65  CH2       23.7480    5.0840   13.1240 C.ar   93  TRP93       0.0015
     66  N         20.1040   -1.9600   13.9450 N.am   94  ASN94      -0.1974
     67  CA        20.1920   -3.2330   14.6660 C.3    94  ASN94       0.1688
     68  C         19.8860   -4.5350   13.9240 C.2    94  ASN94       0.2292
     69  O         18.8590   -4.6690   13.2650 O.2    94  ASN94      -0.2864
     70  CB        19.2970   -3.1770   15.9170 C.3    94  ASN94       0.1181
     71  CG        19.5830   -1.9790   16.8050 C.2    94  ASN94       0.2629
     72  OD1       20.6960   -1.7950   17.2860 O.2    94  ASN94      -0.2716
     73  ND2       18.5650   -1.1570   17.0280 N.am   94  ASN94      -0.0877
     74  N         22.1570   -3.1510   21.4500 N.3   145  ASN145     -0.1240
     75  CA        22.0670   -2.4420   20.1600 C.3   145  ASN145      0.1653
     76  C         23.4330   -2.2880   19.4860 C.2   145  ASN145      0.2266
     77  O         24.4180   -1.9270   20.1320 O.2   145  ASN145     -0.2867
     78  CB        21.4510   -1.0510   20.3620 C.3   145  ASN145      0.1155
     79  CG        19.9350   -1.0810   20.4280 C.2   145  ASN145      0.2627
     80  OD1       19.3330   -2.0940   20.7920 O.2   145  ASN145     -0.2716
     81  ND2       19.3060    0.0450   20.0920 N.am  145  ASN145     -0.0877
     82  N         24.5690    0.0320   17.3990 N.3   147  PRO147     -0.2116
     83  CA        25.2140    1.3500   17.4690 C.3   147  PRO147      0.1372
     84  C         25.7080    1.6810   18.8770 C.2   147  PRO147      0.2244
     85  O         26.7130    2.3700   19.0450 O.2   147  PRO147     -0.2868
     86  CB        24.1240    2.3070   16.9580 C.3   147  PRO147      0.0268
     87  CG        22.8460    1.6130   17.3160 C.3   147  PRO147      0.0207
     88  CD        23.1580    0.1580   16.9940 C.3   147  PRO147      0.0892
     89  N         29.5630    2.7140   19.1330 N.3   151  ARG151     -0.1245
     90  CA        29.8930    4.0590   19.6200 C.3   151  ARG151      0.1563
     91  C         30.7020    3.9790   20.9250 C.2   151  ARG151      0.2260
     92  O         31.6550    4.7330   21.1340 O.2   151  ARG151     -0.2867
     93  CB        28.6060    4.8650   19.8290 C.3   151  ARG151      0.0307
     94  CG        27.8080    5.0410   18.5390 C.3   151  ARG151      0.0489
     95  CD        26.4190    5.6380   18.7540 C.3   151  ARG151      0.2205
     96  NE        25.6340    5.5690   17.5210 N.pl3 151  ARG151     -0.0865
     97  CZ        24.3810    6.0000   17.3860 C.cat 151  ARG151      0.5346
     98  NH1       23.7340    6.5470   18.4120 N.pl3 151  ARG151      0.1354
     99  NH2       23.7710    5.8770   16.2130 N.pl3 151  ARG151      0.1354
    100  N         19.0940    5.2520   25.4810 N.3   175  TRP175     -0.1241
    101  CA        18.7270    6.3000   24.5090 C.3   175  TRP175      0.1605
    102  C         17.6850    7.3180   25.0050 C.2   175  TRP175      0.2264
    103  O         17.2580    8.1850   24.2410 O.2   175  TRP175     -0.2867
    104  CB        18.1600    5.6710   23.2340 C.3   175  TRP175      0.0550
    105  CG        18.9490    4.5220   22.6460 C.ar  175  TRP175      0.0003
    106  CD1       18.4910    3.2570   22.4190 C.ar  175  TRP175      0.0946
    107  CD2       20.2950    4.5560   22.1410 C.ar  175  TRP175      0.0152
    108  NE1       19.4590    2.5060   21.7990 N.ar  175  TRP175     -0.2442
    109  CE2       20.5750    3.2760   21.6190 C.ar  175  TRP175      0.0810
    110  CE3       21.2900    5.5440   22.0830 C.ar  175  TRP175      0.0012
    111  CZ2       21.8170    2.9590   21.0390 C.ar  175  TRP175      0.0191
    112  CZ3       22.5250    5.2280   21.5060 C.ar  175  TRP175      0.0001
    113  CH2       22.7740    3.9450   20.9940 C.ar  175  TRP175      0.0015
    114  N         24.0000    9.3050   22.2310 N.3   200  ASN200     -0.1240
    115  CA        23.0500    9.9250   21.2930 C.3   200  ASN200      0.1653
    116  C         22.6240   11.2900   21.8330 C.2   200  ASN200      0.2266
    117  O         22.9330   11.6200   22.9750 O.2   200  ASN200     -0.2867
    118  CB        21.8420    9.0020   21.0280 C.3   200  ASN200      0.1155
    119  CG        20.7710    9.0860   22.0990 C.2   200  ASN200      0.2627
    120  OD1       21.0670    9.2230   23.2800 O.2   200  ASN200     -0.2716
    121  ND2       19.5150    8.9700   21.6880 N.am  200  ASN200     -0.0877
    122  N         23.3660   12.1240   16.4860 N.3   224  ASP224     -0.1239
    123  CA        22.0620   12.0830   15.8280 C.3   224  ASP224      0.1674
    124  C         21.8820   13.3410   14.9860 C.2   224  ASP224      0.2266
    125  O         21.3710   13.2760   13.8760 O.2   224  ASP224     -0.2867
    126  CB        20.9060   11.9760   16.8390 C.3   224  ASP224      0.1410
    127  CG        20.6430   10.5360   17.2910 C.2   224  ASP224      0.3668
    128  OD1       21.2070    9.6100   16.6730 O.co2 224  ASP224     -0.2456
    129  OD2       19.8680   10.3320   18.2530 O.co2 224  ASP224     -0.2456
    130  N         22.9930   11.7740   11.2420 N.3   244  TRP244     -0.1241
    131  CA        22.7220   10.5530   10.4820 C.3   244  TRP244      0.1605
    132  C         21.6430   10.8680    9.4590 C.2   244  TRP244      0.2264
    133  O         21.4000   10.0990    8.5360 O.2   244  TRP244     -0.2867
    134  CB        22.1740    9.4450   11.3870 C.3   244  TRP244      0.0550
    135  CG        22.8950    9.1950   12.6910 C.ar  244  TRP244      0.0003
    136  CD1       22.3220    9.1280   13.9310 C.ar  244  TRP244      0.0946
    137  CD2       24.2800    8.8600   12.8750 C.ar  244  TRP244      0.0152
    138  NE1       23.2550    8.7640   14.8690 N.ar  244  TRP244     -0.2442
    139  CE2       24.4660    8.5910   14.2510 C.ar  244  TRP244      0.0810
    140  CE3       25.3800    8.7510   12.0150 C.ar  244  TRP244      0.0012
    141  CZ2       25.7090    8.2240   14.7860 C.ar  244  TRP244      0.0191
    142  CZ3       26.6190    8.3850   12.5510 C.ar  244  TRP244      0.0001
    143  CH2       26.7690    8.1250   13.9220 C.ar  244  TRP244      0.0015
@<TRIPOS>BOND
     1   133   132    2
     2   132   131    1
     3   131   130    1
     4   131   134    1
     5   134   135    1
     6    52    53    1
     7   140   142   ar
     8   140   137   ar
     9    44    45    1
    10   142   143   ar
    11   135   137   ar
    12   135   136   ar
    13    31    30    1
    14    53    54    1
    15    53    56    1
    16   137   139   ar
    17    45    48    1
    18    45    46    1
    19    65    63   ar
    20    65    64   ar
    21    63    61   ar
    22    64    62   ar
    23    69    68    2
    24    61    60   ar
    25    61    59   ar
    26    62    59   ar
    27    60    58   ar
    28    54    55    2
    29    54    66   am
    30    59    57   ar
    31    48    49    1
    32    58    57   ar
    33    57    56    1
    34    30    28   ar
    35    30    29   ar
    36   125   124    2
    37    28    26   ar
    38   143   141   ar
    39    68    67    1
    40   136   138   ar
    41    66    67    1
    42    35    34    2
    43    23    22    2
    44    46    47    2
    45   139   141   ar
    46   139   138   ar
    47    49    51   ar
    48    49    50   ar
    49    29    27   ar
    50    67    70    1
    51    34    33    1
    52    26    25   ar
    53   124   123    1
    54    22    32   am
    55    22    21    1
    56    33    32    1
    57    33    36    1
    58    39    41   ar
    59    39    37   ar
    60    27    25   ar
    61    41    42   ar
    62    25    24    1
    63   123   122    1
    64   123   126    1
    65    70    71    1
    66    21    24    1
    67    21    20    1
    68    99    97    1
    69    36    37    1
    70    37    38   ar
    71   128   127   ar
    72    71    73   am
    73    71    72    2
    74   126   127    1
    75    42    43    1
    76    42    40   ar
    77    86    87    1
    78    86    83    1
    79    88    87    1
    80    88    82    1
    81   127   129   ar
    82    97    96    2
    83    97    98    1
    84    82    83    1
    85    83    84    1
    86    96    95    1
    87     1     2    1
    88    38    40   ar
    89    15    14    2
    90    94    95    1
    91    94    93    1
    92    84    85    2
    93     2     3    1
    94     2     5    1
    95    89    90    1
    96    14    13    1
    97    76    77    2
    98    76    75    1
    99    11     9    1
   100    18    17    2
   101    90    93    1
   102    90    91    1
   103     3     4    2
   104     5     6    1
   105    10     9    1
   106    81    79   am
   107    75    78    1
   108    75    74    1
   109    17    19   am
   110    17    16    1
   111     9     8    2
   112    78    79    1
   113    79    80    2
   114    16    13    1
   115    13    12    1
   116    91    92    2
   117   113   111   ar
   118   113   112   ar
   119   118   115    1
   120   118   119    1
   121   111   109   ar
   122     8     7    1
   123     6     7    1
   124   115   116    1
   125   115   114    1
   126   112   110   ar
   127   109   108   ar
   128   109   107   ar
   129   121   119   am
   130   108   106   ar
   131   116   117    2
   132   110   107   ar
   133   119   120    2
   134   107   105   ar
   135   106   105   ar
   136   105   104    1
   137   104   101    1
   138   103   102    2
   139   101   102    1
   140   101   100    1
