@<TRIPOS>MOLECULE
tmp/2rjrA00.pdb
 126 117 0 0 0
SMALL
GASTEIGER

@<TRIPOS>ATOM
      1  N        -33.1950   17.5220   30.5830 N.3    52  TYR52      -0.1241
      2  CA       -32.3820   16.3140   30.7380 C.3    52  TYR52       0.1605
      3  C        -31.7380   16.1430   32.1080 C.2    52  TYR52       0.2264
      4  O        -31.0580   17.0410   32.6110 O.2    52  TYR52      -0.2867
      5  CB       -31.2700   16.2500   29.6890 C.3    52  TYR52       0.0534
      6  CG       -30.3570   15.0610   29.9100 C.ar   52  TYR52      -0.0201
      7  CD1      -30.8280   13.7570   29.7370 C.ar   52  TYR52      -0.0009
      8  CD2      -29.0500   15.2330   30.3680 C.ar   52  TYR52      -0.0009
      9  CE1      -30.0250   12.6550   30.0190 C.ar   52  TYR52       0.0417
     10  CE2      -28.2360   14.1320   30.6530 C.ar   52  TYR52       0.0417
     11  CZ       -28.7350   12.8490   30.4780 C.ar   52  TYR52       0.1957
     12  OH       -27.9530   11.7590   30.7860 O.3    52  TYR52      -0.2866
     13  N        -31.6470    9.2600   32.6300 N.3    58  TYR58      -0.1227
     14  CA       -30.3090    9.5720   32.1470 C.3    58  TYR58       0.1736
     15  C        -29.8420    8.7640   30.9460 C.2    58  TYR58       0.2596
     16  O        -30.2290    7.6090   30.7620 O.2    58  TYR58      -0.2718
     17  CB       -29.3060    9.4320   33.2920 C.3    58  TYR58       0.0548
     18  CG       -29.6080   10.3640   34.4410 C.ar   58  TYR58      -0.0200
     19  CD1      -30.4290    9.9610   35.4990 C.ar   58  TYR58      -0.0009
     20  CD2      -29.1160   11.6690   34.4470 C.ar   58  TYR58      -0.0009
     21  CE1      -30.7520   10.8390   36.5360 C.ar   58  TYR58       0.0417
     22  CE2      -29.4330   12.5560   35.4760 C.ar   58  TYR58       0.0417
     23  CZ       -30.2490   12.1370   36.5170 C.ar   58  TYR58       0.1957
     24  OH       -30.5530   13.0110   37.5380 O.3    58  TYR58      -0.2866
     25  N        -28.9970    9.3910   30.1330 N.am   59  GLY59      -0.1957
     26  CA       -28.4830    8.7370   28.9450 C.3    59  GLY59       0.1869
     27  C        -29.6050    8.2640   28.0440 C.2    59  GLY59       0.2309
     28  O        -30.5330    9.0160   27.7430 O.2    59  GLY59      -0.2863
     29  N        -32.0470    6.4070   28.6640 N.3    61  MET61      -0.1245
     30  CA       -33.3510    6.4450   29.3200 C.3    61  MET61       0.1570
     31  C        -33.9430    7.8480   29.4430 C.2    61  MET61       0.2261
     32  O        -34.7950    8.1110   30.3010 O.2    61  MET61      -0.2867
     33  CB       -33.2690    5.7680   30.6970 C.3    61  MET61       0.0387
     34  CG       -33.0190    4.2590   30.5950 C.3    61  MET61       0.0595
     35  SD       -33.0120    3.3620   32.1660 S.3    61  MET61      -0.1393
     36  CE       -31.3670    3.7420   32.7750 C.3    61  MET61       0.0692
     37  N        -28.8870    8.4270   40.6820 N.3    78  LEU78      -0.1245
     38  CA       -27.8670    8.6620   39.6610 C.3    78  LEU78       0.1561
     39  C        -26.4620    8.5110   40.2350 C.2    78  LEU78       0.2260
     40  O        -25.6690    7.6990   39.7630 O.2    78  LEU78      -0.2867
     41  CB       -28.0150   10.0730   39.0840 C.3    78  LEU78       0.0270
     42  CG       -26.8670   10.5730   38.1960 C.3    78  LEU78       0.0019
     43  CD1      -26.8680    9.8220   36.8550 C.3    78  LEU78       0.0001
     44  CD2      -27.0230   12.0650   37.9640 C.3    78  LEU78       0.0001
     45  N        -24.1100    5.1520   39.5010 N.3    82  HIS82      -0.1241
     46  CA       -22.9300    5.3740   38.6780 C.3    82  HIS82       0.1621
     47  C        -21.6050    5.3050   39.4180 C.2    82  HIS82       0.2264
     48  O        -20.5390    5.3250   38.7950 O.2    82  HIS82      -0.2867
     49  CB       -23.0660    6.6850   37.8970 C.3    82  HIS82       0.0745
     50  CG       -23.9990    6.5770   36.7330 C.ar   82  HIS82       0.0817
     51  ND1      -25.3510    6.3500   36.8840 N.ar   82  HIS82      -0.2268
     52  CD2      -23.7650    6.5870   35.3980 C.ar   82  HIS82       0.1154
     53  CE1      -25.9090    6.2210   35.6920 C.ar   82  HIS82       0.1986
     54  NE2      -24.9680    6.3590   34.7740 N.ar   82  HIS82      -0.2212
     55  N        -17.8600   10.0760   34.2760 N.3   142  LEU142     -0.1245
     56  CA       -18.9690    9.6920   35.1600 C.3   142  LEU142      0.1561
     57  C        -18.6620    8.9600   36.4670 C.2   142  LEU142      0.2260
     58  O        -19.0050    9.4410   37.5480 O.2   142  LEU142     -0.2867
     59  CB       -19.9900    8.8600   34.3790 C.3   142  LEU142      0.0270
     60  CG       -20.8260    9.5810   33.3230 C.3   142  LEU142      0.0019
     61  CD1      -21.7810    8.5910   32.6630 C.3   142  LEU142      0.0001
     62  CD2      -21.6030   10.7140   33.9770 C.3   142  LEU142      0.0001
     63  N        -26.2830   15.4250   38.7080 N.3   187  LEU187     -0.1245
     64  CA       -25.7900   15.3780   37.3380 C.3   187  LEU187      0.1561
     65  C        -24.6410   16.3560   37.0850 C.2   187  LEU187      0.2260
     66  O        -23.6300   15.9960   36.4790 O.2   187  LEU187     -0.2867
     67  CB       -26.9340   15.6730   36.3660 C.3   187  LEU187      0.0270
     68  CG       -26.5690   15.7040   34.8800 C.3   187  LEU187      0.0019
     69  CD1      -26.0010   14.3610   34.4490 C.3   187  LEU187      0.0001
     70  CD2      -27.8040   16.0430   34.0680 C.3   187  LEU187      0.0001
     71  N        -21.2120   15.0800   35.5230 N.3   191  ASN191     -0.1240
     72  CA       -21.2660   15.2150   34.0690 C.3   191  ASN191      0.1653
     73  C        -20.2600   16.2090   33.4760 C.2   191  ASN191      0.2266
     74  O        -20.6220   17.3180   33.0740 O.2   191  ASN191     -0.2867
     75  CB       -22.6970   15.5960   33.6690 C.3   191  ASN191      0.1155
     76  CG       -22.9570   15.4470   32.1840 C.2   191  ASN191      0.2627
     77  OD1      -22.3370   14.6240   31.5110 O.2   191  ASN191     -0.2716
     78  ND2      -23.9010   16.2290   31.6680 N.am  191  ASN191     -0.0877
     79  N        -23.6830   19.4320   31.3320 N.3   327  ASN327     -0.1240
     80  CA       -24.8670   19.4200   30.4810 C.3   327  ASN327      0.1653
     81  C        -26.0480   18.9410   31.3140 C.2   327  ASN327      0.2266
     82  O        -25.9030   18.0410   32.1370 O.2   327  ASN327     -0.2867
     83  CB       -24.6640   18.4820   29.2810 C.3   327  ASN327      0.1155
     84  CG       -25.7270   18.6620   28.2010 C.2   327  ASN327      0.2627
     85  OD1      -25.8740   19.7440   27.6280 O.2   327  ASN327     -0.2716
     86  ND2      -26.4700   17.5960   27.9160 N.am  327  ASN327     -0.0877
     87  N        -26.3870   20.0580   24.8890 N.3   339  GLY339     -0.1225
     88  CA       -25.3040   19.6920   23.9950 C.3   339  GLY339      0.1811
     89  C        -24.4280   18.5780   24.5280 C.2   339  GLY339      0.2280
     90  O        -24.9260   17.6380   25.1550 O.2   339  GLY339     -0.2866
     91  N        -19.5480   17.8220   27.8320 N.3   342  PHE342     -0.1241
     92  CA       -18.9800   16.8690   28.7780 C.3   342  PHE342      0.1605
     93  C        -18.0240   15.9540   28.0090 C.2   342  PHE342      0.2264
     94  O        -17.2990   15.1580   28.6070 O.2   342  PHE342     -0.2867
     95  CB       -20.0950   16.0230   29.4050 C.3   342  PHE342      0.0534
     96  CG       -21.0370   15.4280   28.3970 C.ar  342  PHE342     -0.0203
     97  CD1      -20.6060   14.4420   27.5120 C.ar  342  PHE342     -0.0042
     98  CD2      -22.3450   15.8900   28.2950 C.ar  342  PHE342     -0.0042
     99  CE1      -21.4600   13.9300   26.5400 C.ar  342  PHE342     -0.0003
    100  CE2      -23.2090   15.3840   27.3260 C.ar  342  PHE342     -0.0003
    101  CZ       -22.7640   14.4010   26.4440 C.ar  342  PHE342     -0.0000
    102  N        -24.3670    1.9890   26.5620 N.3   424  ASN424     -0.1240
    103  CA       -25.6160    2.6030   27.0080 C.3   424  ASN424      0.1653
    104  C        -26.6570    2.6130   25.8880 C.2   424  ASN424      0.2266
    105  O        -27.1830    3.6670   25.5200 O.2   424  ASN424     -0.2867
    106  CB       -25.3420    4.0330   27.5040 C.3   424  ASN424      0.1155
    107  CG       -26.5210    4.6350   28.2580 C.2   424  ASN424      0.2627
    108  OD1      -27.0600    4.0300   29.1900 O.2   424  ASN424     -0.2716
    109  ND2      -26.9140    5.8400   27.8680 N.am  424  ASN424     -0.0877
    110  N        -26.3900    5.0560   23.1340 N.3   427  ASN427     -0.1225
    111  CA       -26.5750    6.4910   23.3470 C.3   427  ASN427      0.1785
    112  C        -25.1940    7.1390   23.3810 C.2   427  ASN427      0.2597
    113  O        -24.9900    8.2360   22.8490 O.2   427  ASN427     -0.2718
    114  CB       -27.2940    6.7950   24.6640 C.3   427  ASN427      0.1169
    115  CG       -27.4180    8.2990   24.9170 C.2   427  ASN427      0.2627
    116  OD1      -28.0550    9.0190   24.1440 O.2   427  ASN427     -0.2716
    117  ND2      -26.7980    8.7770   25.9960 N.am  427  ASN427     -0.0877
    118  N        -24.2530    6.4570   24.0300 N.am  428  GLN428     -0.1979
    119  CA       -22.8790    6.9370   24.1160 C.3   428  GLN428      0.1601
    120  C        -22.1460    6.1890   23.0110 C.2   428  GLN428      0.2287
    121  O        -21.2630    5.3640   23.2850 O.2   428  GLN428     -0.2864
    122  CB       -22.2590    6.5860   25.4770 C.3   428  GLN428      0.0394
    123  CG       -23.0340    7.0920   26.6870 C.3   428  GLN428      0.0908
    124  CD       -22.1230    7.4810   27.8440 C.2   428  GLN428      0.2608
    125  OE1      -22.5820    7.7120   28.9640 O.2   428  GLN428     -0.2717
    126  NE2      -20.8270    7.5670   27.5730 N.am  428  GLN428     -0.0878
@<TRIPOS>BOND
     1   113   112    2
     2   120   121    2
     3   120   119    1
     4   110   111    1
     5   111   112    1
     6   111   114    1
     7   112   118   am
     8    88    89    1
     9    88    87    1
    10   118   119    1
    11   119   122    1
    12   116   115    2
    13    89    90    2
    14   114   115    1
    15   115   117   am
    16   122   123    1
    17   105   104    2
    18   104   103    1
    19   101    99   ar
    20   101   100   ar
    21    99    97   ar
    22   102   103    1
    23   123   124    1
    24   103   106    1
    25   100    98   ar
    26   106   107    1
    27    97    96   ar
    28   126   124   am
    29    85    84    2
    30    28    27    2
    31    91    92    1
    32   124   125    2
    33   109   107   am
    34    86    84   am
    35    93    94    2
    36    93    92    1
    37    27    26    1
    38    84    83    1
    39   107   108    2
    40    98    96   ar
    41    96    95    1
    42    29    30    1
    43    92    95    1
    44    26    25    1
    45    83    80    1
    46    30    31    1
    47    30    33    1
    48    31    32    2
    49     5     6    1
    50     5     2    1
    51     7     6   ar
    52     7     9   ar
    53     6     8   ar
    54     9    11   ar
    55    25    15   am
    56     8    10   ar
    57    11    10   ar
    58    11    12    1
    59    80    81    1
    60    80    79    1
    61     1     2    1
    62    34    33    1
    63    34    35    1
    64     2     3    1
    65    16    15    2
    66    15    14    1
    67    81    82    2
    68    77    76    2
    69    78    76   am
    70     3     4    2
    71    14    13    1
    72    14    17    1
    73    35    36    1
    74    76    75    1
    75    61    60    1
    76    74    73    2
    77    17    18    1
    78    60    62    1
    79    60    59    1
    80    73    72    1
    81    75    72    1
    82    70    68    1
    83    72    71    1
    84    55    56    1
    85    59    56    1
    86    18    20   ar
    87    18    19   ar
    88    20    22   ar
    89    69    68    1
    90    54    52   ar
    91    54    53   ar
    92    68    67    1
    93    56    57    1
    94    52    50   ar
    95    22    23   ar
    96    19    21   ar
    97    53    51   ar
    98    67    64    1
    99    57    58    2
   100    66    65    2
   101    23    21   ar
   102    23    24    1
   103    50    51   ar
   104    50    49    1
   105    43    42    1
   106    65    64    1
   107    64    63    1
   108    49    46    1
   109    44    42    1
   110    42    41    1
   111    46    47    1
   112    46    45    1
   113    48    47    2
   114    41    38    1
   115    38    39    1
   116    38    37    1
   117    40    39    2
