@<TRIPOS>MOLECULE
tmp/2rjsB00.pdb
 126 117 0 0 0
SMALL
GASTEIGER

@<TRIPOS>ATOM
      1  N         31.5750   20.6270    8.2620 N.3    53  TYR53      -0.1241
      2  CA        30.8490   19.3670    8.1340 C.3    53  TYR53       0.1605
      3  C         30.2050   19.1450    6.7790 C.2    53  TYR53       0.2264
      4  O         29.4620   19.9950    6.2990 O.2    53  TYR53      -0.2867
      5  CB        29.7390   19.2450    9.1800 C.3    53  TYR53       0.0534
      6  CG        28.9200   17.9880    8.9580 C.ar   53  TYR53      -0.0201
      7  CD1       29.4560   16.7370    9.2480 C.ar   53  TYR53      -0.0009
      8  CD2       27.6600   18.0440    8.3550 C.ar   53  TYR53      -0.0009
      9  CE1       28.7730   15.5710    8.9390 C.ar   53  TYR53       0.0417
     10  CE2       26.9620   16.8840    8.0380 C.ar   53  TYR53       0.0417
     11  CZ        27.5280   15.6480    8.3310 C.ar   53  TYR53       0.1957
     12  OH        26.8810   14.4810    8.0020 O.3    53  TYR53      -0.2866
     13  N         30.7770   12.1750    6.1770 N.3    59  TYR59      -0.1227
     14  CA        29.4000   12.3220    6.6310 C.3    59  TYR59       0.1736
     15  C         29.0550   11.4640    7.8390 C.2    59  TYR59       0.2596
     16  O         29.6640   10.4200    8.0800 O.2    59  TYR59      -0.2718
     17  CB        28.4540   12.0200    5.4750 C.3    59  TYR59       0.0548
     18  CG        28.6280   12.9960    4.3400 C.ar   59  TYR59      -0.0200
     19  CD1       28.1450   14.2930    4.4380 C.ar   59  TYR59      -0.0009
     20  CD2       29.3260   12.6370    3.1860 C.ar   59  TYR59      -0.0009
     21  CE1       28.3510   15.2070    3.4230 C.ar   59  TYR59       0.0417
     22  CE2       29.5390   13.5470    2.1640 C.ar   59  TYR59       0.0417
     23  CZ        29.0500   14.8310    2.2900 C.ar   59  TYR59       0.1957
     24  OH        29.2750   15.7470    1.2900 O.3    59  TYR59      -0.2866
     25  N         28.0730   11.9270    8.6010 N.am   60  GLY60      -0.1957
     26  CA        27.6470   11.2090    9.7850 C.3    60  GLY60       0.1869
     27  C         28.8100   10.8060   10.6630 C.2    60  GLY60       0.2309
     28  O         29.6770   11.6150   10.9770 O.2    60  GLY60      -0.2863
     29  N         31.4400    9.2690   10.0250 N.3    62  MET62      -0.1245
     30  CA        32.7520    9.4640    9.4210 C.3    62  MET62       0.1570
     31  C         33.1680   10.9310    9.2820 C.2    62  MET62       0.2261
     32  O         33.9660   11.2870    8.4060 O.2    62  MET62      -0.2867
     33  CB        32.8080    8.7480    8.0700 C.3    62  MET62       0.0387
     34  CG        32.6620    7.2420    8.1870 C.3    62  MET62       0.0595
     35  SD        32.8190    6.3790    6.6200 S.3    62  MET62      -0.1393
     36  CE        31.1680    6.6900    5.9030 C.3    62  MET62       0.0692
     37  N         28.1150   11.1330   -1.9780 N.3    79  LEU79      -0.1245
     38  CA        27.0880   11.2760   -0.9440 C.3    79  LEU79       0.1561
     39  C         25.6760   11.0120   -1.4680 C.2    79  LEU79       0.2260
     40  O         24.9360   10.2090   -0.8980 O.2    79  LEU79      -0.2867
     41  CB        27.1230   12.6870   -0.3380 C.3    79  LEU79       0.0270
     42  CG        25.8930   13.0490    0.5150 C.3    79  LEU79       0.0019
     43  CD1       25.8430   12.1440    1.7430 C.3    79  LEU79       0.0001
     44  CD2       25.9560   14.5110    0.9420 C.3    79  LEU79       0.0001
     45  N         23.6430    7.4130   -0.9100 N.3    83  HIS83      -0.1241
     46  CA        22.4840    7.6010   -0.0430 C.3    83  HIS83       0.1621
     47  C         21.1310    7.4300   -0.7320 C.2    83  HIS83       0.2264
     48  O         20.0760    7.5350   -0.1010 O.2    83  HIS83      -0.2867
     49  CB        22.5640    8.9500    0.6680 C.3    83  HIS83       0.0745
     50  CG        23.4510    8.9250    1.8710 C.ar   83  HIS83       0.0817
     51  ND1       24.8160    8.7540    1.7840 N.ar   83  HIS83      -0.2268
     52  CD2       23.1620    8.9780    3.1920 C.ar   83  HIS83       0.1154
     53  CE1       25.3300    8.7000    2.9990 C.ar   83  HIS83       0.1986
     54  NE2       24.3470    8.8330    3.8720 N.ar   83  HIS83      -0.2212
     55  N         16.9270   11.6520    4.3710 N.3   143  LEU143     -0.1245
     56  CA        18.0400   11.4220    3.4490 C.3   143  LEU143      0.1561
     57  C         17.7620   10.6290    2.1690 C.2   143  LEU143      0.2260
     58  O         17.9980   11.1210    1.0620 O.2   143  LEU143     -0.2867
     59  CB        19.1960   10.7450    4.1860 C.3   143  LEU143      0.0270
     60  CG        19.9720   11.5560    5.2180 C.3   143  LEU143      0.0019
     61  CD1       20.9590   10.6460    5.9230 C.3   143  LEU143      0.0001
     62  CD2       20.6940   12.7030    4.5420 C.3   143  LEU143      0.0001
     63  N         24.8320   17.8350   -0.0150 N.3   188  LEU188     -0.1245
     64  CA        24.4070   17.7850    1.3760 C.3   188  LEU188      0.1561
     65  C         23.1610   18.6240    1.6570 C.2   188  LEU188      0.2260
     66  O         22.2200   18.1500    2.3030 O.2   188  LEU188     -0.2867
     67  CB        25.5470   18.2550    2.2810 C.3   188  LEU188      0.0270
     68  CG        25.2580   18.3320    3.7800 C.3   188  LEU188      0.0019
     69  CD1       24.7100   17.0050    4.2650 C.3   188  LEU188      0.0001
     70  CD2       26.5450   18.6990    4.5300 C.3   188  LEU188      0.0001
     71  N         19.7750   17.0360    3.2320 N.3   192  ASN192     -0.1240
     72  CA        19.7990   17.1540    4.6870 C.3   192  ASN192      0.1653
     73  C         18.6710   17.9530    5.3290 C.2   192  ASN192      0.2266
     74  O         18.9300   18.9130    6.0590 O.2   192  ASN192     -0.2867
     75  CB        21.1430   17.7450    5.1070 C.3   192  ASN192      0.1155
     76  CG        21.3930   17.6220    6.5850 C.2   192  ASN192      0.2627
     77  OD1       21.4640   16.5220    7.1210 O.2   192  ASN192     -0.2716
     78  ND2       21.5310   18.7540    7.2540 N.am  192  ASN192     -0.0877
     79  N         21.8450   21.6830    7.3800 N.3   328  ASN328     -0.1240
     80  CA        22.9980   21.7920    8.2610 C.3   328  ASN328      0.1653
     81  C         24.2000   21.5010    7.3810 C.2   328  ASN328      0.2266
     82  O         24.1160   20.6870    6.4690 O.2   328  ASN328     -0.2867
     83  CB        22.7980   20.9090    9.4990 C.3   328  ASN328      0.1155
     84  CG        23.8290   21.1780   10.5790 C.2   328  ASN328      0.2627
     85  OD1       23.8550   22.2600   11.1680 O.2   328  ASN328     -0.2716
     86  ND2       24.6880   20.1970   10.8380 N.am  328  ASN328     -0.0877
     87  N         24.5690   22.3810   13.7970 N.3   340  GLY340     -0.1225
     88  CA        23.5250   21.8950   14.6710 C.3   340  GLY340      0.1811
     89  C         22.7760   20.6940   14.1510 C.2   340  GLY340      0.2280
     90  O         23.3800   19.7640   13.6120 O.2   340  GLY340     -0.2866
     91  N         17.9180   19.4770   10.7960 N.3   343  PHE343     -0.1241
     92  CA        17.4540   18.4790    9.8430 C.3   343  PHE343      0.1605
     93  C         16.5230   17.4840   10.5430 C.2   343  PHE343      0.2264
     94  O         15.8330   16.6930    9.8900 O.2   343  PHE343     -0.2867
     95  CB        18.6550   17.7350    9.2750 C.3   343  PHE343      0.0534
     96  CG        19.6400   17.2940   10.3240 C.ar  343  PHE343     -0.0203
     97  CD1       19.2970   16.3250   11.2600 C.ar  343  PHE343     -0.0042
     98  CD2       20.9170   17.8610   10.3800 C.ar  343  PHE343     -0.0042
     99  CE1       20.2020   15.9230   12.2370 C.ar  343  PHE343     -0.0003
    100  CE2       21.8310   17.4630   11.3560 C.ar  343  PHE343     -0.0003
    101  CZ        21.4800   16.4950   12.2860 C.ar  343  PHE343     -0.0000
    102  N         24.0040    4.2510   12.0930 N.3   425  ASN425     -0.1240
    103  CA        25.2380    4.9210   11.6960 C.3   425  ASN425      0.1653
    104  C         26.2730    5.0290   12.8220 C.2   425  ASN425      0.2266
    105  O         26.6620    6.1290   13.2050 O.2   425  ASN425     -0.2867
    106  CB        24.9150    6.3200   11.1570 C.3   425  ASN425      0.1155
    107  CG        26.0770    6.9280   10.3840 C.2   425  ASN425      0.2627
    108  OD1       26.5690    6.3430    9.4110 O.2   425  ASN425     -0.2716
    109  ND2       26.5150    8.1070   10.8100 N.am  425  ASN425     -0.0877
    110  N         25.8350    7.4000   15.6650 N.3   428  ASN428     -0.1225
    111  CA        25.8650    8.8480   15.4550 C.3   428  ASN428      0.1785
    112  C         24.4220    9.3580   15.3620 C.2   428  ASN428      0.2597
    113  O         24.0840   10.4160   15.8860 O.2   428  ASN428     -0.2718
    114  CB        26.6200    9.2300   14.1810 C.3   428  ASN428      0.1169
    115  CG        26.6320   10.7440   13.9530 C.2   428  ASN428      0.2627
    116  OD1       27.0350   11.5030   14.8340 O.2   428  ASN428     -0.2716
    117  ND2       26.1760   11.1840   12.7790 N.am  428  ASN428     -0.0877
    118  N         23.5760    8.6080   14.6710 N.am  429  GLN429     -0.1979
    119  CA        22.1690    8.9790   14.5680 C.3   429  GLN429      0.1601
    120  C         21.4760    8.1710   15.6550 C.2   429  GLN429      0.2287
    121  O         20.6900    7.2840   15.3630 O.2   429  GLN429     -0.2864
    122  CB        21.6170    8.6240   13.1780 C.3   429  GLN429      0.0394
    123  CG        22.2530    9.4530   12.0670 C.3   429  GLN429      0.0908
    124  CD        21.5210    9.3950   10.7270 C.2   429  GLN429      0.2608
    125  OE1       21.5940    8.4040   10.0040 O.2   429  GLN429     -0.2717
    126  NE2       20.8170   10.4710   10.3930 N.am  429  GLN429     -0.0878
@<TRIPOS>BOND
     1    37    38    1
     2    39    38    1
     3    39    40    2
     4    38    41    1
     5    45    46    1
     6    47    48    2
     7    47    46    1
     8    41    42    1
     9    46    49    1
    10    63    64    1
    11    42    44    1
    12    42    43    1
    13    49    50    1
    14    58    57    2
    15    24    23    1
    16    64    65    1
    17    64    67    1
    18    65    66    2
    19    51    50   ar
    20    51    53   ar
    21    50    52   ar
    22    22    23   ar
    23    22    20   ar
    24    57    56    1
    25    67    68    1
    26    23    21   ar
    27    53    54   ar
    28    20    18   ar
    29    52    54   ar
    30    71    72    1
    31    21    19   ar
    32    56    59    1
    33    56    55    1
    34    68    69    1
    35    68    70    1
    36    59    60    1
    37    18    19   ar
    38    18    17    1
    39    62    60    1
    40    72    75    1
    41    72    73    1
    42    75    76    1
    43    60    61    1
    44    73    74    2
    45    17    14    1
    46    36    35    1
    47    13    14    1
    48     4     3    2
    49    82    81    2
    50    76    77    2
    51    76    78   am
    52    35    34    1
    53    14    15    1
    54     3     2    1
    55    79    80    1
    56    81    80    1
    57    15    16    2
    58    15    25   am
    59    12    11    1
    60    10    11   ar
    61    10     8   ar
    62    33    34    1
    63    33    30    1
    64     2     1    1
    65     2     5    1
    66    80    83    1
    67    11     9   ar
    68     8     6   ar
    69    32    31    2
    70    25    26    1
    71     9     7   ar
    72     6     5    1
    73     6     7   ar
    74    95    92    1
    75    95    96    1
    76    31    30    1
    77   108   107    2
    78    30    29    1
    79    83    84    1
    80    26    27    1
    81    92    93    1
    82    92    91    1
    83    94    93    2
    84   125   124    2
    85    96    98   ar
    86    96    97   ar
    87    98   100   ar
    88   107   109   am
    89   107   106    1
    90   126   124   am
    91    84    86   am
    92    84    85    2
    93    27    28    2
    94   124   123    1
    95   106   103    1
    96    97    99   ar
    97   100   101   ar
    98   103   102    1
    99   103   104    1
   100   123   122    1
   101    99   101   ar
   102   117   115   am
   103   104   105    2
   104   122   119    1
   105    90    89    2
   106    87    88    1
   107   115   114    1
   108   115   116    2
   109    89    88    1
   110   114   111    1
   111   119   118    1
   112   119   120    1
   113   118   112   am
   114   112   111    1
   115   112   113    2
   116   121   120    2
   117   111   110    1
