@<TRIPOS>MOLECULE
tmp/2rk8B00.pdb
 87 81 0 0 0
SMALL
GASTEIGER

@<TRIPOS>ATOM
      1  N          2.3290    6.9160  -44.7880 N.3    84  ARG84      -0.1245
      2  CA         3.0620    5.8810  -45.5110 C.3    84  ARG84       0.1563
      3  C          2.2520    5.4720  -46.7210 C.2    84  ARG84       0.2260
      4  O          1.0630    5.1680  -46.5890 O.2    84  ARG84      -0.2867
      5  CB         3.2440    4.6460  -44.6330 C.3    84  ARG84       0.0307
      6  CG         4.5220    4.5940  -43.8260 C.3    84  ARG84       0.0489
      7  CD         4.8160    3.1630  -43.3740 C.3    84  ARG84       0.2205
      8  NE         3.7830    2.6180  -42.4880 N.pl3  84  ARG84      -0.0865
      9  CZ         2.9180    1.6580  -42.8180 C.cat  84  ARG84       0.5346
     10  NH1        2.9390    1.0990  -44.0250 N.pl3  84  ARG84       0.1354
     11  NH2        2.0250    1.2470  -41.9300 N.pl3  84  ARG84       0.1354
     12  N         13.3850    4.0130  -39.0910 N.3   240  LYS240     -0.1231
     13  CA        12.2410    3.3650  -38.4580 C.3   240  LYS240      0.1693
     14  C         11.7360    2.1290  -39.2220 C.2   240  LYS240      0.2591
     15  O         12.1330    1.0020  -38.9220 O.2   240  LYS240     -0.2718
     16  CB        11.1290    4.4060  -38.2580 C.3   240  LYS240      0.0285
     17  CG         9.9320    3.9390  -37.4570 C.3   240  LYS240      0.0035
     18  CD         9.0450    5.1200  -37.0640 C.3   240  LYS240      0.0206
     19  CE         7.7290    4.6480  -36.4780 C.3   240  LYS240      0.1093
     20  NZ         7.9000    3.9200  -35.1970 N.3   240  LYS240     -0.1314
     21  N         10.8680    2.3360  -40.2050 N.am  241  LYS241     -0.1980
     22  CA        10.2890    1.2200  -40.9560 C.3   241  LYS241      0.1596
     23  C         11.2530    0.6660  -42.0020 C.2   241  LYS241      0.2287
     24  O         11.3950   -0.5550  -42.1460 O.2   241  LYS241     -0.2864
     25  CB         8.9690    1.6380  -41.5980 C.3   241  LYS241      0.0298
     26  CG         7.9180    2.1210  -40.5970 C.3   241  LYS241      0.0038
     27  CD         7.4580    1.0010  -39.6870 C.3   241  LYS241      0.0206
     28  CE         6.4530    1.5050  -38.6790 C.3   241  LYS241      0.1093
     29  NZ         5.8660    0.3710  -37.9100 N.3   241  LYS241     -0.1314
     30  N          7.7210   -6.1130  -35.7860 N.3   261  HIS261     -0.1241
     31  CA         6.7660   -5.0380  -35.5360 C.3   261  HIS261      0.1621
     32  C          6.1190   -5.2500  -34.1610 C.2   261  HIS261      0.2264
     33  O          4.9060   -5.4660  -34.0550 O.2   261  HIS261     -0.2867
     34  CB         5.7140   -5.0230  -36.6620 C.3   261  HIS261      0.0745
     35  CG         4.8900   -3.7730  -36.7170 C.ar  261  HIS261      0.0817
     36  ND1        3.5990   -3.7560  -37.2010 N.ar  261  HIS261     -0.2268
     37  CD2        5.1730   -2.4990  -36.3610 C.ar  261  HIS261      0.1154
     38  CE1        3.1210   -2.5260  -37.1350 C.ar  261  HIS261      0.1986
     39  NE2        4.0540   -1.7460  -36.6210 N.ar  261  HIS261     -0.2212
     40  N         -0.6230   -1.9130  -37.4100 N.3   283  SER283     -0.1202
     41  CA        -0.5750   -0.4680  -37.2330 C.3   283  SER283      0.2020
     42  C         -1.9130    0.0460  -36.6970 C.2   283  SER283      0.2618
     43  O         -2.9790   -0.3870  -37.1500 O.2   283  SER283     -0.2717
     44  CB        -0.2640    0.2200  -38.5670 C.3   283  SER283      0.2103
     45  OG         0.9140   -0.3010  -39.1670 O.3   283  SER283     -0.2182
     46  N         -1.8380    0.9600  -35.7290 N.am  284  ALA284     -0.1979
     47  CA        -3.0130    1.5900  -35.1030 C.3   284  ALA284      0.1597
     48  C         -4.0680    0.5830  -34.6220 C.2   284  ALA284      0.2287
     49  O         -5.2700    0.7440  -34.8780 O.2   284  ALA284     -0.2864
     50  CB        -3.6250    2.6440  -36.0350 C.3   284  ALA284      0.0319
     51  N          6.6620   -0.0130  -30.7900 N.3   308  ASP308     -0.1239
     52  CA         6.5760   -0.2700  -32.2260 C.3   308  ASP308      0.1674
     53  C          7.4720   -1.3970  -32.7520 C.2   308  ASP308      0.2266
     54  O          6.9840   -2.3350  -33.3770 O.2   308  ASP308     -0.2867
     55  CB         6.8610    1.0180  -33.0120 C.3   308  ASP308      0.1410
     56  CG         6.3690    0.9500  -34.4500 C.2   308  ASP308      0.3668
     57  OD1        5.3210    0.3380  -34.6900 O.co2 308  ASP308     -0.2456
     58  OD2        7.0300    1.5160  -35.3470 O.co2 308  ASP308     -0.2456
     59  N          6.5630    7.5310  -32.0600 N.3   330  PHE330     -0.1241
     60  CA         5.9110    8.1970  -33.1820 C.3   330  PHE330      0.1605
     61  C          4.4850    7.6510  -33.2770 C.2   330  PHE330      0.2264
     62  O          4.1850    6.7940  -34.1230 O.2   330  PHE330     -0.2867
     63  CB         6.7120    7.9270  -34.4670 C.3   330  PHE330      0.0534
     64  CG         6.2600    8.7190  -35.6590 C.ar  330  PHE330     -0.0203
     65  CD1        6.4330   10.0990  -35.7030 C.ar  330  PHE330     -0.0042
     66  CD2        5.6910    8.0760  -36.7590 C.ar  330  PHE330     -0.0042
     67  CE1        6.0260   10.8340  -36.8150 C.ar  330  PHE330     -0.0003
     68  CE2        5.2800    8.8060  -37.8790 C.ar  330  PHE330     -0.0003
     69  CZ         5.4470   10.1880  -37.9010 C.ar  330  PHE330     -0.0000
     70  N          0.1240    7.4970  -33.2350 N.3   332  VAL332     -0.1245
     71  CA        -1.1010    8.0300  -33.8290 C.3   332  VAL332      0.1561
     72  C         -1.7920    8.8930  -32.7800 C.2   332  VAL332      0.2260
     73  O         -2.0970    8.4220  -31.6770 O.2   332  VAL332     -0.2867
     74  CB        -2.0480    6.8900  -34.3260 C.3   332  VAL332      0.0252
     75  CG1       -3.4320    7.4180  -34.6460 C.3   332  VAL332      0.0019
     76  CG2       -1.4630    6.2060  -35.5580 C.3   332  VAL332      0.0019
     77  N          0.0100   12.6900  -35.9010 N.3   402  ARG402     -0.1245
     78  CA         1.0200   12.0780  -35.0380 C.3   402  ARG402      0.1563
     79  C          1.5530   12.9730  -33.9490 C.2   402  ARG402      0.2260
     80  O          1.5130   14.2040  -34.0610 O.2   402  ARG402     -0.2867
     81  CB         2.2290   11.6100  -35.8720 C.3   402  ARG402      0.0307
     82  CG         1.9440   10.5380  -36.8950 C.3   402  ARG402      0.0489
     83  CD         2.0040    9.1390  -36.3090 C.3   402  ARG402      0.2205
     84  NE         1.4140    8.1750  -37.2320 N.pl3 402  ARG402     -0.0865
     85  CZ         1.6750    6.8700  -37.2520 C.cat 402  ARG402      0.5346
     86  NH1        2.5370    6.3320  -36.3990 N.pl3 402  ARG402      0.1354
     87  NH2        1.0680    6.1030  -38.1440 N.pl3 402  ARG402      0.1354
@<TRIPOS>BOND
     1     3     4    2
     2     3     2    1
     3     2     1    1
     4     2     5    1
     5     5     6    1
     6    10     9    1
     7     6     7    1
     8     7     8    1
     9     9     8    2
    10     9    11    1
    11    24    23    2
    12    23    22    1
    13    25    22    1
    14    25    26    1
    15    22    21    1
    16    26    27    1
    17    21    14   am
    18    27    28    1
    19    14    15    2
    20    14    13    1
    21    45    44    1
    22    12    13    1
    23    28    29    1
    24    44    41    1
    25    13    16    1
    26    16    17    1
    27    87    85    1
    28    69    68   ar
    29    69    67   ar
    30    68    66   ar
    31    17    18    1
    32    40    41    1
    33    85    84    2
    34    85    86    1
    35    41    42    1
    36    84    83    1
    37    36    38   ar
    38    36    35   ar
    39    43    42    2
    40    38    39   ar
    41    18    19    1
    42    82    83    1
    43    82    81    1
    44    67    65   ar
    45    66    64   ar
    46    35    34    1
    47    35    37   ar
    48    42    46   am
    49    34    31    1
    50    39    37   ar
    51    19    20    1
    52    50    47    1
    53    77    78    1
    54    81    78    1
    55    30    31    1
    56    46    47    1
    57    65    64   ar
    58    64    63    1
    59    76    74    1
    60    31    32    1
    61    58    56   ar
    62    47    48    1
    63    78    79    1
    64    49    48    2
    65    57    56   ar
    66    75    74    1
    67    63    60    1
    68    56    55    1
    69    74    71    1
    70    32    33    2
    71    62    61    2
    72    80    79    2
    73    71    70    1
    74    71    72    1
    75    54    53    2
    76    61    60    1
    77    60    59    1
    78    55    52    1
    79    72    73    2
    80    53    52    1
    81    52    51    1
