@<TRIPOS>MOLECULE
tmp/2rkdA00.pdb
 115 109 0 0 0
SMALL
GASTEIGER

@<TRIPOS>ATOM
      1  N          7.1800   -7.2090    8.1230 N.3    85  ARG85      -0.1245
      2  CA         7.5880   -6.1580    7.1880 C.3    85  ARG85       0.1563
      3  C          9.0220   -5.7430    7.4960 C.2    85  ARG85       0.2260
      4  O          9.3860   -5.5740    8.6720 O.2    85  ARG85      -0.2867
      5  CB         6.7080   -4.9190    7.3430 C.3    85  ARG85       0.0307
      6  CG         5.6270   -4.7390    6.2990 C.3    85  ARG85       0.0489
      7  CD         5.0310   -3.3220    6.3410 C.3    85  ARG85       0.2205
      8  NE         4.5280   -2.9530    7.6730 N.pl3  85  ARG85      -0.0865
      9  CZ         5.0500   -2.0020    8.4430 C.cat  85  ARG85       0.5346
     10  NH1        6.0830   -1.2900    8.0180 N.pl3  85  ARG85       0.1354
     11  NH2        4.5320   -1.7470    9.6380 N.pl3  85  ARG85       0.1354
     12  N          5.7290  -12.8750    3.9910 N.3   233  TYR233     -0.1227
     13  CA         5.0510  -12.3680    5.1870 C.3   233  TYR233      0.1736
     14  C          4.2760  -11.0620    5.0110 C.2   233  TYR233      0.2596
     15  O          4.8180  -10.0560    4.5280 O.2   233  TYR233     -0.2718
     16  CB         6.0480  -12.2040    6.3440 C.3   233  TYR233      0.0548
     17  CG         5.3790  -12.1660    7.7060 C.ar  233  TYR233     -0.0200
     18  CD1        5.2440  -13.3270    8.4700 C.ar  233  TYR233     -0.0009
     19  CD2        4.8650  -10.9730    8.2240 C.ar  233  TYR233     -0.0009
     20  CE1        4.6140  -13.3080    9.7170 C.ar  233  TYR233      0.0417
     21  CE2        4.2340  -10.9420    9.4730 C.ar  233  TYR233      0.0417
     22  CZ         4.1170  -12.1120   10.2150 C.ar  233  TYR233      0.1957
     23  OH         3.4940  -12.0860   11.4470 O.3   233  TYR233     -0.2866
     24  N          3.0160  -11.0980    5.4450 N.am  234  GLY234     -0.1942
     25  CA         2.1670   -9.9130    5.6540 C.3   234  GLY234      0.2014
     26  C          2.3390   -8.7610    4.6850 C.2   234  GLY234      0.2639
     27  O          2.0840   -8.9010    3.4900 O.2   234  GLY234     -0.2714
     28  N          2.7940   -7.6280    5.2120 N.am  235  GLY235     -0.1954
     29  CA         2.9880   -6.4020    4.4340 C.3   235  GLY235      0.1869
     30  C          3.9090   -6.5210    3.2330 C.2   235  GLY235      0.2309
     31  O          3.8010   -5.7270    2.2930 O.2   235  GLY235     -0.2863
     32  N         -2.1720   -4.5790    1.1250 N.3   241  LYS241     -0.1231
     33  CA        -2.1660   -4.1610    2.5480 C.3   241  LYS241      0.1693
     34  C         -1.5130   -2.8060    2.8770 C.2   241  LYS241      0.2591
     35  O         -2.1390   -1.9510    3.5180 O.2   241  LYS241     -0.2718
     36  CB        -1.5150   -5.2790    3.3920 C.3   241  LYS241      0.0285
     37  CG        -1.3980   -5.0070    4.9000 C.3   241  LYS241      0.0035
     38  CD        -2.7060   -5.2410    5.6110 C.3   241  LYS241      0.0206
     39  CE        -2.7620   -4.4390    6.8900 C.3   241  LYS241      0.1093
     40  NZ        -4.1280   -3.9410    7.1140 N.3   241  LYS241     -0.1314
     41  N         -0.2470   -2.6410    2.5010 N.am  242  LYS242     -0.1980
     42  CA         0.4970   -1.3940    2.7310 C.3   242  LYS242      0.1596
     43  C          1.0580   -0.8510    1.4190 C.2   242  LYS242      0.2287
     44  O          1.0270    0.3570    1.1660 O.2   242  LYS242     -0.2864
     45  CB         1.6510   -1.6130    3.7260 C.3   242  LYS242      0.0298
     46  CG         1.2540   -2.0550    5.1440 C.3   242  LYS242      0.0038
     47  CD         0.4360   -0.9860    5.8750 C.3   242  LYS242      0.0206
     48  CE         0.1270   -1.4130    7.2970 C.3   242  LYS242      0.1093
     49  NZ        -0.6140   -0.3410    8.0120 N.3   242  LYS242     -0.1314
     50  N         -3.2840    6.1550    6.9760 N.3   262  HIS262     -0.1241
     51  CA        -3.1460    5.0780    7.9540 C.3   262  HIS262      0.1621
     52  C         -4.1270    5.3260    9.1040 C.2   262  HIS262      0.2264
     53  O         -3.7180    5.6220   10.2300 O.2   262  HIS262     -0.2867
     54  CB        -1.6940    5.0450    8.4650 C.3   262  HIS262      0.0745
     55  CG        -1.3360    3.8110    9.2370 C.ar  262  HIS262      0.0817
     56  ND1       -0.3450    3.8030   10.1960 N.ar  262  HIS262     -0.2268
     57  CD2       -1.8260    2.5480    9.1930 C.ar  262  HIS262      0.1154
     58  CE1       -0.2360    2.5880   10.7080 C.ar  262  HIS262      0.1986
     59  NE2       -1.1240    1.8080   10.1160 N.ar  262  HIS262     -0.2212
     60  N         -7.5910    0.0220    9.9650 N.3   309  ASP309     -0.1239
     61  CA        -6.2110    0.2800    9.5050 C.3   309  ASP309      0.1674
     62  C         -6.0410    1.3740    8.4350 C.2   309  ASP309      0.2266
     63  O         -5.2100    2.2780    8.5940 O.2   309  ASP309     -0.2867
     64  CB        -5.5410   -1.0320    9.0520 C.3   309  ASP309      0.1410
     65  CG        -4.0250   -0.9060    8.9150 C.2   309  ASP309      0.3668
     66  OD1       -3.3650   -0.3870    9.8430 O.co2 309  ASP309     -0.2456
     67  OD2       -3.4870   -1.3450    7.8800 O.co2 309  ASP309     -0.2456
     68  N         -6.0490   -7.6140    9.6030 N.3   331  PHE331     -0.1241
     69  CA        -4.7530   -8.2810    9.7390 C.3   331  PHE331      0.1605
     70  C         -4.1050   -7.7480   11.0180 C.2   331  PHE331      0.2264
     71  O         -3.2310   -6.8740   10.9740 O.2   331  PHE331     -0.2867
     72  CB        -3.8830   -7.9950    8.5000 C.3   331  PHE331      0.0534
     73  CG        -2.6110   -8.8060    8.4270 C.ar  331  PHE331     -0.0203
     74  CD1       -2.6520  -10.1880    8.2300 C.ar  331  PHE331     -0.0042
     75  CD2       -1.3700   -8.1790    8.5190 C.ar  331  PHE331     -0.0042
     76  CE1       -1.4720  -10.9370    8.1500 C.ar  331  PHE331     -0.0003
     77  CE2       -0.1890   -8.9140    8.4440 C.ar  331  PHE331     -0.0003
     78  CZ        -0.2400  -10.2940    8.2560 C.ar  331  PHE331     -0.0000
     79  N         -2.3510   -7.6600   15.0010 N.3   333  VAL333     -0.1245
     80  CA        -1.3300   -8.2330   15.8710 C.3   333  VAL333      0.1561
     81  C         -2.0640   -9.0580   16.9230 C.2   333  VAL333      0.2260
     82  O         -2.9520   -8.5450   17.6150 O.2   333  VAL333     -0.2867
     83  CB        -0.4500   -7.1310   16.5380 C.3   333  VAL333      0.0252
     84  CG1        0.5010   -7.7270   17.5640 C.3   333  VAL333      0.0019
     85  CG2        0.3330   -6.3470   15.4820 C.3   333  VAL333      0.0019
     86  N          5.1310  -10.2120   16.6800 N.3   401  ASN401     -0.1240
     87  CA         4.4490   -9.7270   15.4810 C.3   401  ASN401      0.1653
     88  C          3.4870  -10.7450   14.8490 C.2   401  ASN401      0.2266
     89  O          3.0570  -10.5690   13.7100 O.2   401  ASN401     -0.2867
     90  CB         5.4640   -9.2170   14.4480 C.3   401  ASN401      0.1155
     91  CG         4.8050   -8.4520   13.3080 C.2   401  ASN401      0.2627
     92  OD1        3.9830   -7.5620   13.5380 O.2   401  ASN401     -0.2716
     93  ND2        5.1560   -8.8060   12.0680 N.am  401  ASN401     -0.0877
     94  N          0.0400  -12.8840   13.9840 N.3   403  ARG403     -0.1245
     95  CA        -1.1140  -12.2610   13.3380 C.3   403  ARG403      0.1563
     96  C         -2.3660  -13.1170   13.3100 C.2   403  ARG403      0.2260
     97  O         -2.2940  -14.3460   13.3190 O.2   403  ARG403     -0.2867
     98  CB        -0.7590  -11.8930   11.8870 C.3   403  ARG403      0.0307
     99  CG         0.3580  -10.8900   11.7530 C.3   403  ARG403      0.0489
    100  CD        -0.1510   -9.5060   12.0050 C.3   403  ARG403      0.2205
    101  NE         0.9400   -8.5640   12.1950 N.pl3 403  ARG403     -0.0865
    102  CZ         0.8070   -7.2470   12.1000 C.cat 403  ARG403      0.5346
    103  NH1       -0.3750   -6.7150   11.8070 N.pl3 403  ARG403      0.1354
    104  NH2        1.8570   -6.4610   12.3020 N.pl3 403  ARG403      0.1354
    105  N          5.2600    4.6350    5.5500 N.3   476  PHE476     -0.1241
    106  CA         4.2660    4.4700    4.4730 C.3   476  PHE476      0.1605
    107  C          4.1130    5.5860    3.4330 C.2   476  PHE476      0.2264
    108  O          3.3260    5.4270    2.4930 O.2   476  PHE476     -0.2867
    109  CB         2.8910    4.1610    5.0780 C.3   476  PHE476      0.0534
    110  CG         2.9020    3.0370    6.0790 C.ar  476  PHE476     -0.0203
    111  CD1        3.2860    1.7460    5.7000 C.ar  476  PHE476     -0.0042
    112  CD2        2.5010    3.2630    7.3980 C.ar  476  PHE476     -0.0042
    113  CE1        3.2950    0.7080    6.6200 C.ar  476  PHE476     -0.0003
    114  CE2        2.4960    2.2250    8.3290 C.ar  476  PHE476     -0.0003
    115  CZ         2.8990    0.9450    7.9400 C.ar  476  PHE476     -0.0000
@<TRIPOS>BOND
     1    32    33    1
     2    44    43    2
     3    43    42    1
     4    31    30    2
     5   108   107    2
     6    41    42    1
     7    41    34   am
     8    33    34    1
     9    33    36    1
    10    42    45    1
    11    34    35    2
    12    30    29    1
    13    36    37    1
    14   107   106    1
    15    27    26    2
    16    45    46    1
    17    12    13    1
    18    29    28    1
    19   106   109    1
    20   106   105    1
    21    15    14    2
    22    26    28   am
    23    26    25    1
    24    37    38    1
    25    14    13    1
    26    14    24   am
    27   109   110    1
    28    46    47    1
    29    13    16    1
    30    24    25    1
    31    38    39    1
    32   111   110   ar
    33   111   113   ar
    34    47    48    1
    35   110   112   ar
    36     6     7    1
    37     6     5    1
    38     7     8    1
    39    16    17    1
    40   113   115   ar
    41    39    40    1
    42    50    51    1
    43     2     5    1
    44     2     3    1
    45     2     1    1
    46    48    49    1
    47   112   114   ar
    48     3     4    2
    49     8     9    2
    50    17    19   ar
    51    17    18   ar
    52    67    65   ar
    53   115   114   ar
    54    51    54    1
    55    51    52    1
    56    10     9    1
    57    76    74   ar
    58    76    78   ar
    59    19    21   ar
    60    74    73   ar
    61    78    77   ar
    62    73    72    1
    63    73    75   ar
    64    62    63    2
    65    62    61    1
    66     9    11    1
    67    77    75   ar
    68    54    55    1
    69    18    20   ar
    70    72    69    1
    71    65    64    1
    72    65    66   ar
    73    64    61    1
    74    52    53    2
    75    57    55   ar
    76    57    59   ar
    77    55    56   ar
    78    21    22   ar
    79    61    60    1
    80    68    69    1
    81    20    22   ar
    82    69    70    1
    83    59    58   ar
    84    56    58   ar
    85    22    23    1
    86    71    70    2
    87    99    98    1
    88    99   100    1
    89   103   102    1
    90    98    95    1
    91   100   101    1
    92    93    91   am
    93   102   101    2
    94   102   104    1
    95    91    92    2
    96    91    90    1
    97    96    97    2
    98    96    95    1
    99    95    94    1
   100    89    88    2
   101    90    87    1
   102    88    87    1
   103    79    80    1
   104    87    86    1
   105    85    83    1
   106    80    83    1
   107    80    81    1
   108    83    84    1
   109    81    82    2
