@<TRIPOS>MOLECULE
tmp/2rkeA00.pdb
 91 86 0 0 0
SMALL
GASTEIGER

@<TRIPOS>ATOM
      1  N          7.7960  -10.0770    9.5680 N.3    83  ALA83      -0.1231
      2  CA         7.3260   -8.6810    9.5510 C.3    83  ALA83       0.1694
      3  C          7.6760   -7.9660    8.2470 C.2    83  ALA83       0.2591
      4  O          8.5950   -8.3800    7.5430 O.2    83  ALA83      -0.2718
      5  CB         7.9380   -7.9010   10.7210 C.3    83  ALA83       0.0304
      6  N          6.9500   -6.8830    7.9400 N.am   84  ARG84      -0.1980
      7  CA         7.4220   -5.8700    6.9880 C.3    84  ARG84       0.1597
      8  C          8.8580   -5.4600    7.3270 C.2    84  ARG84       0.2287
      9  O          9.1410   -5.1490    8.4840 O.2    84  ARG84      -0.2864
     10  CB         6.5840   -4.6010    7.1020 C.3    84  ARG84       0.0334
     11  CG         5.5170   -4.4020    6.0540 C.3    84  ARG84       0.0492
     12  CD         4.8830   -3.0120    6.1650 C.3    84  ARG84       0.2205
     13  NE         4.5440   -2.6590    7.5470 N.pl3  84  ARG84      -0.0865
     14  CZ         5.1960   -1.7680    8.2930 C.cat  84  ARG84       0.5346
     15  NH1        6.2300   -1.0920    7.8020 N.pl3  84  ARG84       0.1354
     16  NH2        4.7990   -1.5420    9.5430 N.pl3  84  ARG84       0.1354
     17  N          5.5730  -12.7210    3.9430 N.3   232  TYR232     -0.1241
     18  CA         4.8720  -12.1790    5.1150 C.3   232  TYR232      0.1605
     19  C          4.0440  -10.9140    4.8660 C.2   232  TYR232      0.2264
     20  O          4.5080   -9.9650    4.2240 O.2   232  TYR232     -0.2867
     21  CB         5.8410  -11.9060    6.2700 C.3   232  TYR232      0.0534
     22  CG         5.1400  -11.8560    7.6210 C.ar  232  TYR232     -0.0201
     23  CD1        5.0530  -12.9990    8.4200 C.ar  232  TYR232     -0.0009
     24  CD2        4.5500  -10.6780    8.0840 C.ar  232  TYR232     -0.0009
     25  CE1        4.3970  -12.9810    9.6470 C.ar  232  TYR232      0.0417
     26  CE2        3.8820  -10.6440    9.3130 C.ar  232  TYR232      0.0417
     27  CZ         3.8190  -11.8040   10.0900 C.ar  232  TYR232      0.1957
     28  OH         3.1860  -11.7980   11.3100 O.3   232  TYR232     -0.2866
     29  N          2.7050   -7.4940    5.1220 N.3   234  GLY234     -0.1225
     30  CA         2.8580   -6.2420    4.3660 C.3   234  GLY234      0.1811
     31  C          3.7670   -6.3110    3.1500 C.2   234  GLY234      0.2280
     32  O          3.6680   -5.4680    2.2480 O.2   234  GLY234     -0.2866
     33  N         -2.5610   -4.1480    0.5290 N.3   240  LYS240     -0.1231
     34  CA        -2.6610   -3.4870    1.8310 C.3   240  LYS240      0.1693
     35  C         -1.8240   -2.2000    1.9680 C.2   240  LYS240      0.2591
     36  O         -2.3450   -1.0730    1.8940 O.2   240  LYS240     -0.2718
     37  CB        -2.2870   -4.4950    2.9300 C.3   240  LYS240      0.0285
     38  CG        -2.5170   -3.9820    4.3310 C.3   240  LYS240      0.0035
     39  CD        -2.6370   -5.1090    5.3360 C.3   240  LYS240      0.0206
     40  CE        -2.7970   -4.5320    6.7440 C.3   240  LYS240      0.1093
     41  NZ        -4.1530   -3.9580    6.9200 N.3   240  LYS240     -0.1314
     42  N         -0.5230   -2.3560    2.1890 N.am  241  LYS241     -0.1980
     43  CA         0.3320   -1.1940    2.3860 C.3   241  LYS241      0.1596
     44  C          0.9640   -0.6680    1.0950 C.2   241  LYS241      0.2287
     45  O          1.0460    0.5480    0.8840 O.2   241  LYS241     -0.2864
     46  CB         1.4170   -1.5310    3.4020 C.3   241  LYS241      0.0298
     47  CG         0.8680   -2.0530    4.7220 C.3   241  LYS241      0.0038
     48  CD         0.1700   -0.9630    5.5210 C.3   241  LYS241      0.0206
     49  CE        -0.2240   -1.4710    6.9030 C.3   241  LYS241      0.1093
     50  NZ        -0.8460   -0.4160    7.7320 N.3   241  LYS241     -0.1314
     51  N         -6.4230   -7.4180    9.4480 N.3   330  PHE330     -0.1241
     52  CA        -5.1300   -8.0690    9.6240 C.3   330  PHE330      0.1605
     53  C         -4.5340   -7.5400   10.9280 C.2   330  PHE330      0.2264
     54  O         -3.5470   -6.7890   10.9250 O.2   330  PHE330     -0.2867
     55  CB        -4.2200   -7.7740    8.4200 C.3   330  PHE330      0.0534
     56  CG        -3.0320   -8.6890    8.3040 C.ar  330  PHE330     -0.0203
     57  CD1       -3.1970  -10.0460    8.0130 C.ar  330  PHE330     -0.0042
     58  CD2       -1.7420   -8.1900    8.4670 C.ar  330  PHE330     -0.0042
     59  CE1       -2.0960  -10.8940    7.9010 C.ar  330  PHE330     -0.0003
     60  CE2       -0.6290   -9.0290    8.3530 C.ar  330  PHE330     -0.0003
     61  CZ        -0.8090  -10.3830    8.0700 C.ar  330  PHE330     -0.0000
     62  N          4.7440   -9.7410   16.5150 N.3   400  ASN400     -0.1240
     63  CA         4.0990   -9.2520   15.3050 C.3   400  ASN400      0.1653
     64  C          3.1510  -10.2790   14.6680 C.2   400  ASN400      0.2266
     65  O          2.7050  -10.1010   13.5230 O.2   400  ASN400     -0.2867
     66  CB         5.1510   -8.7480   14.3050 C.3   400  ASN400      0.1155
     67  CG         4.5500   -7.9370   13.1610 C.2   400  ASN400      0.2627
     68  OD1        3.7560   -7.0100   13.3650 O.2   400  ASN400     -0.2716
     69  ND2        4.9360   -8.2890   11.9440 N.am  400  ASN400     -0.0877
     70  N         -0.2750  -12.4420   13.8560 N.3   402  ARG402     -0.1245
     71  CA        -1.4750  -11.8500   13.2790 C.3   402  ARG402      0.1563
     72  C         -2.6780  -12.7740   13.2640 C.2   402  ARG402      0.2260
     73  O         -2.5290  -13.9960   13.2750 O.2   402  ARG402     -0.2867
     74  CB        -1.1860  -11.4000   11.8330 C.3   402  ARG402      0.0307
     75  CG        -0.0980  -10.3440   11.7130 C.3   402  ARG402      0.0489
     76  CD        -0.6400   -8.9550   11.9880 C.3   402  ARG402      0.2205
     77  NE         0.4310   -8.0090   12.3090 N.pl3 402  ARG402     -0.0865
     78  CZ         0.2910   -6.6880   12.2580 C.cat 402  ARG402      0.5346
     79  NH1       -0.8590   -6.1460   11.8750 N.pl3 402  ARG402      0.1354
     80  NH2        1.3060   -5.9070   12.5850 N.pl3 402  ARG402      0.1354
     81  N          5.0720    4.6110    5.3140 N.3   475  PHE475     -0.1241
     82  CA         4.1080    4.4700    4.2360 C.3   475  PHE475      0.1605
     83  C          3.9950    5.6180    3.2400 C.2   475  PHE475      0.2264
     84  O          3.2300    5.5060    2.2780 O.2   475  PHE475     -0.2867
     85  CB         2.7170    4.1140    4.7930 C.3   475  PHE475      0.0534
     86  CG         2.7290    2.9740    5.7840 C.ar  475  PHE475     -0.0203
     87  CD1        3.1040    1.6910    5.3880 C.ar  475  PHE475     -0.0042
     88  CD2        2.3470    3.1850    7.1120 C.ar  475  PHE475     -0.0042
     89  CE1        3.1210    0.6390    6.3060 C.ar  475  PHE475     -0.0003
     90  CE2        2.3590    2.1350    8.0340 C.ar  475  PHE475     -0.0003
     91  CZ         2.7490    0.8590    7.6220 C.ar  475  PHE475     -0.0000
@<TRIPOS>BOND
     1    33    34    1
     2    45    44    2
     3    44    43    1
     4    34    35    1
     5    34    37    1
     6    36    35    2
     7    35    42   am
     8    42    43    1
     9    32    31    2
    10    84    83    2
    11    43    46    1
    12    37    38    1
    13    31    30    1
    14    83    82    1
    15    46    47    1
    16    17    18    1
    17    20    19    2
    18    82    85    1
    19    82    81    1
    20    38    39    1
    21    30    29    1
    22    47    48    1
    23    85    86    1
    24    19    18    1
    25    18    21    1
    26    39    40    1
    27    87    86   ar
    28    87    89   ar
    29    48    49    1
    30    86    88   ar
    31    11    12    1
    32    11    10    1
    33    12    13    1
    34    21    22    1
    35    89    91   ar
    36    40    41    1
    37    49    50    1
    38     7    10    1
    39     7     8    1
    40     7     6    1
    41    88    90   ar
    42     8     9    2
    43     4     3    2
    44    13    14    2
    45    22    24   ar
    46    22    23   ar
    47    91    90   ar
    48    15    14    1
    49    59    57   ar
    50    59    61   ar
    51     6     3   am
    52    57    56   ar
    53    61    60   ar
    54    24    26   ar
    55     3     2    1
    56    14    16    1
    57    56    55    1
    58    56    58   ar
    59    60    58   ar
    60    23    25   ar
    61    55    52    1
    62    26    27   ar
    63    51    52    1
    64     2     1    1
    65     2     5    1
    66    52    53    1
    67    25    27   ar
    68    27    28    1
    69    54    53    2
    70    75    74    1
    71    75    76    1
    72    74    71    1
    73    79    78    1
    74    69    67   am
    75    76    77    1
    76    78    77    2
    77    78    80    1
    78    67    68    2
    79    67    66    1
    80    72    73    2
    81    72    71    1
    82    71    70    1
    83    65    64    2
    84    66    63    1
    85    64    63    1
    86    63    62    1
