@<TRIPOS>MOLECULE
tmp/2rkfA00.pdb
 103 96 0 0 0
SMALL
GASTEIGER

@<TRIPOS>ATOM
      1  N        -27.1470    8.8220   -6.6760 N.3     8  ARG8       -0.1245
      2  CA       -26.6610    8.3460   -5.3710 C.3     8  ARG8        0.1563
      3  C        -27.6570    8.7600   -4.2880 C.2     8  ARG8        0.2260
      4  O        -28.1300    9.9120   -4.2980 O.2     8  ARG8       -0.2867
      5  CB       -25.2600    8.8810   -5.0770 C.3     8  ARG8        0.0307
      6  CG       -24.2040    8.4550   -6.1110 C.3     8  ARG8        0.0489
      7  CD       -22.8090    8.8680   -5.6830 C.3     8  ARG8        0.2205
      8  NE       -22.5790   10.2990   -5.8690 N.pl3   8  ARG8       -0.0865
      9  CZ       -21.5600   10.9730   -5.3360 C.cat   8  ARG8        0.5346
     10  NH1      -20.6710   10.3570   -4.5590 N.pl3   8  ARG8        0.1354
     11  NH2      -21.4380   12.2740   -5.5590 N.pl3   8  ARG8        0.1354
     12  N        -24.3370    8.8690    2.3180 N.3    23  LEU23      -0.1245
     13  CA       -24.9510    7.9100    1.4450 C.3    23  LEU23       0.1561
     14  C        -25.6900    6.8240    2.2740 C.2    23  LEU23       0.2260
     15  O        -25.1010    6.2250    3.1940 O.2    23  LEU23      -0.2867
     16  CB       -23.8120    7.3170    0.6060 C.3    23  LEU23       0.0270
     17  CG       -23.9260    6.3690   -0.5670 C.3    23  LEU23       0.0019
     18  CD1      -24.5570    7.0690   -1.7380 C.3    23  LEU23       0.0001
     19  CD2      -22.5200    5.9130   -0.9320 C.3    23  LEU23       0.0001
     20  N        -26.4900    3.3100    2.5010 N.3    25  ASP25      -0.1239
     21  CA       -25.6570    2.2790    1.8870 C.3    25  ASP25       0.1674
     22  C        -25.9850    0.9250    2.4760 C.2    25  ASP25       0.2266
     23  O        -25.4860    0.5570    3.5470 O.2    25  ASP25      -0.2867
     24  CB       -24.1880    2.5810    2.1230 C.3    25  ASP25       0.1410
     25  CG       -23.2700    1.6270    1.4010 C.2    25  ASP25       0.3668
     26  OD1      -23.7360    0.6830    0.7290 O.co2  25  ASP25      -0.2456
     27  OD2      -22.0550    1.8440    1.4890 O.co2  25  ASP25      -0.2456
     28  N        -24.9380   -1.8500    1.3850 N.3    27  GLY27      -0.1210
     29  CA       -23.7770   -2.7340    1.3530 C.3    27  GLY27       0.1956
     30  C        -22.7720   -2.4850    2.4650 C.2    27  GLY27       0.2612
     31  O        -21.7160   -3.0960    2.4630 O.2    27  GLY27      -0.2717
     32  N        -23.0960   -1.5880    3.3970 N.am   28  ALA28      -0.1965
     33  CA       -22.2240   -1.2270    4.4960 C.3    28  ALA28       0.1728
     34  C        -22.8300   -1.7400    5.8110 C.2    28  ALA28       0.2616
     35  O        -23.9920   -1.4710    6.1040 O.2    28  ALA28      -0.2715
     36  CB       -22.0690    0.3240    4.5380 C.3    28  ALA28       0.0334
     37  N        -22.0510   -2.5010    6.5870 N.am   29  ASP29      -0.1957
     38  CA       -22.5000   -3.0110    7.8870 C.3    29  ASP29       0.1840
     39  C        -22.5500   -1.8490    8.8930 C.2    29  ASP29       0.2622
     40  O        -23.4080   -1.8260    9.8060 O.2    29  ASP29      -0.2715
     41  CB       -21.5040   -4.0310    8.4380 C.3    29  ASP29       0.1450
     42  CG       -21.3680   -5.2880    7.5850 C.2    29  ASP29       0.3671
     43  OD1      -22.2580   -5.6250    6.7640 O.co2  29  ASP29      -0.2456
     44  OD2      -20.3450   -6.0000    7.7670 O.co2  29  ASP29      -0.2456
     45  N        -21.6080   -0.9210    8.7200 N.am   30  ASP30      -0.1971
     46  CA       -21.3170    0.1310    9.6960 C.3    30  ASP30       0.1709
     47  C        -21.4180    1.5020    9.0710 C.2    30  ASP30       0.2293
     48  O        -21.3990    1.6400    7.8490 O.2    30  ASP30      -0.2864
     49  CB       -19.8830   -0.0110   10.2340 C.3    30  ASP30       0.1436
     50  CG       -19.6160   -1.3670   10.8750 C.2    30  ASP30       0.3671
     51  OD1      -20.5380   -1.9290   11.5220 O.co2  30  ASP30      -0.2456
     52  OD2      -18.4650   -1.8640   10.7460 O.co2  30  ASP30      -0.2456
     53  N        -19.7720    5.2410    8.6050 N.3    32  ILE32      -0.1245
     54  CA       -18.4310    5.8450    8.5950 C.3    32  ILE32       0.1561
     55  C        -18.5510    7.2770    8.1250 C.2    32  ILE32       0.2260
     56  O        -19.1250    7.5520    7.0640 O.2    32  ILE32      -0.2867
     57  CB       -17.4030    5.1400    7.6860 C.3    32  ILE32       0.0252
     58  CG1      -17.3680    3.6330    7.9070 C.3    32  ILE32       0.0019
     59  CG2      -15.9730    5.7430    7.9260 C.3    32  ILE32       0.0019
     60  CD1      -16.2420    2.9260    7.1270 C.3    32  ILE32       0.0001
     61  N        -11.4360   -0.8460    9.0840 N.3    47  VAL47      -0.1231
     62  CA       -12.5250   -1.3140    8.2160 C.3    47  VAL47       0.1692
     63  C        -11.9910   -1.6690    6.8350 C.2    47  VAL47       0.2593
     64  O        -11.1350   -0.9640    6.2970 O.2    47  VAL47      -0.2718
     65  CB       -13.6480   -0.2500    8.0510 C.3    47  VAL47       0.0266
     66  CG1      -14.5290   -0.2270    9.2660 C.3    47  VAL47       0.0020
     67  CG2      -13.0620    1.1340    7.8150 C.3    47  VAL47       0.0020
     68  N        -12.5060   -2.7520    6.2620 N.am   48  GLY48      -0.1942
     69  CA       -12.0720   -3.1960    4.9350 C.3    48  GLY48       0.2014
     70  C        -13.0680   -2.8360    3.8550 C.2    48  GLY48       0.2639
     71  O        -14.2580   -3.1160    3.9730 O.2    48  GLY48      -0.2714
     72  N        -12.5950   -2.1880    2.8040 N.am   49  GLY49      -0.1939
     73  CA       -13.4360   -1.9320    1.6510 C.3    49  GLY49       0.2014
     74  C        -12.9000   -2.6030    0.4080 C.2    49  GLY49       0.2638
     75  O        -12.1260   -3.5590    0.4840 O.2    49  GLY49      -0.2714
     76  N        -13.2880   -2.0700   -0.7430 N.am   50  ILE50      -0.1977
     77  CA       -12.8960   -2.6370   -2.0230 C.3    50  ILE50       0.1596
     78  C        -11.4130   -2.5590   -2.3700 C.2    50  ILE50       0.2287
     79  O        -10.8870   -3.4300   -3.0750 O.2    50  ILE50      -0.2864
     80  CB       -13.8020   -2.1420   -3.1680 C.3    50  ILE50       0.0276
     81  CG1      -14.5100   -3.3480   -3.7740 C.3    50  ILE50       0.0022
     82  CG2      -13.0100   -1.4420   -4.2730 C.3    50  ILE50       0.0022
     83  CD1      -15.9730   -3.2590   -3.7100 C.3    50  ILE50       0.0001
     84  N        -13.5860    8.3180    1.7900 N.3    81  PRO81      -0.2102
     85  CA       -13.9230    9.1050    0.5960 C.3    81  PRO81       0.1504
     86  C        -15.3850    9.5570    0.5190 C.2    81  PRO81       0.2575
     87  O        -15.7060   10.4910   -0.2330 O.2    81  PRO81      -0.2718
     88  CB       -13.5700    8.1760   -0.5680 C.3    81  PRO81       0.0282
     89  CG       -13.4660    6.8140    0.0100 C.3    81  PRO81       0.0208
     90  CD       -13.2150    6.9250    1.4720 C.3    81  PRO81       0.0893
     91  N        -16.2520    8.9300    1.3160 N.am   82  ALA82      -0.1980
     92  CA       -17.6530    9.3020    1.3730 C.3    82  ALA82       0.1597
     93  C        -18.2400    9.0070    2.7520 C.2    82  ALA82       0.2287
     94  O        -17.8900    7.9840    3.3650 O.2    82  ALA82      -0.2864
     95  CB       -18.4130    8.5360    0.3140 C.3    82  ALA82       0.0319
     96  N        -20.9420    7.5110    4.9220 N.3    84  ILE84      -0.1245
     97  CA       -21.8010    6.3510    4.6520 C.3    84  ILE84       0.1561
     98  C        -22.6550    6.0120    5.8670 C.2    84  ILE84       0.2260
     99  O        -22.1440    5.8490    6.9910 O.2    84  ILE84      -0.2867
    100  CB       -20.9240    5.1190    4.2860 C.3    84  ILE84       0.0252
    101  CG1      -20.1370    5.3880    2.9940 C.3    84  ILE84       0.0019
    102  CG2      -21.7400    3.8270    4.2220 C.3    84  ILE84       0.0019
    103  CD1      -18.8830    4.5150    2.9240 C.3    84  ILE84       0.0001
@<TRIPOS>BOND
     1     1     2    1
     2     6     7    1
     3     6     5    1
     4     8     7    1
     5     8     9    2
     6    11     9    1
     7     2     5    1
     8     2     3    1
     9     9    10    1
    10     4     3    2
    11    82    80    1
    12    81    83    1
    13    81    80    1
    14    80    77    1
    15    79    78    2
    16    78    77    1
    17    77    76    1
    18    18    17    1
    19    19    17    1
    20    76    74   am
    21    88    89    1
    22    88    85    1
    23    17    16    1
    24    87    86    2
    25    89    90    1
    26    95    92    1
    27    74    75    2
    28    74    73    1
    29    86    85    1
    30    86    91   am
    31    85    84    1
    32    16    13    1
    33    26    25   ar
    34    91    92    1
    35    29    28    1
    36    29    30    1
    37    92    93    1
    38    25    27   ar
    39    25    24    1
    40    13    14    1
    41    13    12    1
    42    90    84    1
    43    73    72    1
    44    21    24    1
    45    21    22    1
    46    21    20    1
    47    14    15    2
    48    31    30    2
    49    30    32   am
    50    22    23    2
    51    93    94    2
    52    72    70   am
    53   103   101    1
    54   101   100    1
    55    32    33    1
    56    70    71    2
    57    70    69    1
    58   102   100    1
    59   100    97    1
    60    33    36    1
    61    33    34    1
    62    97    96    1
    63    97    98    1
    64    69    68    1
    65    34    35    2
    66    34    37   am
    67    98    99    2
    68    68    63   am
    69    64    63    2
    70    37    38    1
    71    43    42   ar
    72    63    62    1
    73    56    55    2
    74    60    58    1
    75    42    44   ar
    76    42    41    1
    77    57    58    1
    78    57    59    1
    79    57    54    1
    80    67    65    1
    81    48    47    2
    82    38    41    1
    83    38    39    1
    84    65    62    1
    85    65    66    1
    86    55    54    1
    87    62    61    1
    88    54    53    1
    89    45    39   am
    90    45    46    1
    91    39    40    2
    92    47    46    1
    93    46    49    1
    94    49    50    1
    95    52    50   ar
    96    50    51   ar
