@<TRIPOS>MOLECULE
tmp/2rkgA00.pdb
 118 110 0 0 0
SMALL
GASTEIGER

@<TRIPOS>ATOM
      1  N         -5.9800   27.8100   -6.3530 N.3     8  ARG8       -0.1245
      2  CA        -6.1520   27.1580   -5.0450 C.3     8  ARG8        0.1563
      3  C         -6.2350   28.2130   -3.9480 C.2     8  ARG8        0.2260
      4  O         -5.4290   29.1690   -3.9500 O.2     8  ARG8       -0.2867
      5  CB        -5.0050   26.1960   -4.7640 C.3     8  ARG8        0.0307
      6  CG        -4.9430   25.0100   -5.7350 C.3     8  ARG8        0.0489
      7  CD        -3.8220   24.0480   -5.3600 C.3     8  ARG8        0.2205
      8  NE        -2.4970   24.6380   -5.5170 N.pl3   8  ARG8       -0.0865
      9  CZ        -1.3720   24.1090   -5.0250 C.cat   8  ARG8        0.5346
     10  NH1       -0.2130   24.7330   -5.2110 N.pl3   8  ARG8        0.1354
     11  NH2       -1.4070   22.9770   -4.3120 N.pl3   8  ARG8        0.1354
     12  N         -4.4180   25.5120    2.7560 N.3    23  LEU23      -0.1245
     13  CA        -5.5240   25.5360    1.8570 C.3    23  LEU23       0.1561
     14  C         -6.8520   25.6380    2.6290 C.2    23  LEU23       0.2260
     15  O         -7.1090   24.8240    3.5390 O.2    23  LEU23      -0.2867
     16  CB        -5.4470   24.2060    1.0900 C.3    23  LEU23       0.0270
     17  CG        -6.2240   23.9360   -0.1550 C.3    23  LEU23       0.0019
     18  CD1       -5.7820   24.9330   -1.2290 C.3    23  LEU23       0.0001
     19  CD2       -5.9630   22.4790   -0.5680 C.3    23  LEU23       0.0001
     20  N        -10.2940   24.5580    2.8600 N.3    25  ASP25      -0.1239
     21  CA       -10.8010   23.3380    2.2280 C.3    25  ASP25       0.1674
     22  C        -12.1500   22.9390    2.7820 C.2    25  ASP25       0.2266
     23  O        -12.2110   22.3290    3.8460 O.2    25  ASP25      -0.2867
     24  CB        -9.8210   22.2010    2.4800 C.3    25  ASP25       0.1410
     25  CG       -10.1710   20.9440    1.7090 C.2    25  ASP25       0.3668
     26  OD1      -11.1900   20.9080    0.9870 O.co2  25  ASP25      -0.2456
     27  OD2       -9.4040   19.9790    1.8270 O.co2  25  ASP25      -0.2456
     28  N        -13.9940   20.6640    1.7390 N.3    27  GLY27      -0.1210
     29  CA       -14.1150   19.2130    1.6770 C.3    27  GLY27       0.1956
     30  C        -13.4210   18.4890    2.8150 C.2    27  GLY27       0.2612
     31  O        -13.4560   17.2580    2.8570 O.2    27  GLY27      -0.2717
     32  N        -12.8240   19.2390    3.7390 N.am   28  ALA28      -0.1965
     33  CA       -12.1170   18.6620    4.8870 C.3    28  ALA28       0.1728
     34  C        -12.8960   18.8820    6.1760 C.2    28  ALA28       0.2616
     35  O        -13.2460   20.0100    6.4930 O.2    28  ALA28      -0.2715
     36  CB       -10.7200   19.2840    5.0190 C.3    28  ALA28       0.0334
     37  N        -13.1350   17.8200    6.9370 N.am   29  ASP29      -0.1957
     38  CA       -13.8220   17.9340    8.2190 C.3    29  ASP29       0.1840
     39  C        -12.8890   18.5850    9.2490 C.2    29  ASP29       0.2622
     40  O        -13.3350   19.3190   10.1500 O.2    29  ASP29      -0.2715
     41  CB       -14.1630   16.5400    8.7600 C.3    29  ASP29       0.1450
     42  CG       -15.1770   15.7880    7.9150 C.2    29  ASP29       0.3671
     43  OD1      -15.9210   16.3760    7.0950 O.co2  29  ASP29      -0.2456
     44  OD2      -15.2560   14.5560    8.1180 O.co2  29  ASP29      -0.2456
     45  N        -11.6060   18.2750    9.0990 N.am   30  ASP30      -0.1971
     46  CA       -10.5760   18.5200   10.1090 C.3    30  ASP30       0.1709
     47  C         -9.4250   19.3050    9.4860 C.2    30  ASP30       0.2293
     48  O         -9.2970   19.3570    8.2740 O.2    30  ASP30      -0.2864
     49  CB       -10.0330   17.1790   10.6390 C.3    30  ASP30       0.1436
     50  CG       -11.1350   16.2720   11.2250 C.2    30  ASP30       0.3671
     51  OD1      -11.9850   16.7750   11.9870 O.co2  30  ASP30      -0.2456
     52  OD2      -11.1550   15.0500   10.9200 O.co2  30  ASP30      -0.2456
     53  N         -5.3760   19.7700    9.0390 N.3    32  ILE32      -0.1245
     54  CA        -4.1630   18.9770    9.0950 C.3    32  ILE32       0.1561
     55  C         -2.9660   19.7730    8.5840 C.2    32  ILE32       0.2260
     56  O         -3.0290   20.4200    7.5240 O.2    32  ILE32      -0.2867
     57  CB        -4.2820   17.6220    8.3860 C.3    32  ILE32       0.0252
     58  CG1       -2.9980   16.8150    8.6040 C.3    32  ILE32       0.0019
     59  CG2       -4.5500   17.8030    6.9010 C.3    32  ILE32       0.0019
     60  CD1       -3.2410   15.3790    8.7880 C.3    32  ILE32       0.0001
     61  N         -6.4950    9.3470    9.5760 N.3    48  VAL48      -0.1231
     62  CA        -7.3010   10.1090    8.6210 C.3    48  VAL48       0.1692
     63  C         -7.3530    9.4000    7.2630 C.2    48  VAL48       0.2593
     64  O         -6.3350    8.9180    6.7680 O.2    48  VAL48      -0.2718
     65  CB        -6.7240   11.5340    8.4230 C.3    48  VAL48       0.0266
     66  CG1       -7.5530   12.3210    7.4360 C.3    48  VAL48       0.0020
     67  CG2       -6.6720   12.2610    9.7390 C.3    48  VAL48       0.0020
     68  N         -8.5350    9.3580    6.6570 N.am   49  GLY49      -0.1942
     69  CA        -8.6800    8.7510    5.3460 C.3    49  GLY49       0.2014
     70  C         -9.0540    9.7490    4.2770 C.2    49  GLY49       0.2639
     71  O        -10.0690   10.4280    4.3880 O.2    49  GLY49      -0.2714
     72  N         -8.2350    9.8420    3.2370 N.am   50  GLY50      -0.1939
     73  CA        -8.5680   10.6660    2.0890 C.3    50  GLY50       0.2014
     74  C         -8.7370    9.8470    0.8230 C.2    50  GLY50       0.2638
     75  O         -9.0750    8.6640    0.8650 O.2    50  GLY50      -0.2714
     76  N         -8.5120   10.4980   -0.3110 N.am   51  ILE51      -0.1977
     77  CA        -8.4150    9.8120   -1.5900 C.3    51  ILE51       0.1596
     78  C         -7.0190    9.1930   -1.6330 C.2    51  ILE51       0.2287
     79  O         -6.0330    9.8580   -1.3260 O.2    51  ILE51      -0.2864
     80  CB        -8.6700   10.7940   -2.7440 C.3    51  ILE51       0.0276
     81  CG1      -10.1820   11.0170   -2.8860 C.3    51  ILE51       0.0022
     82  CG2       -8.0740   10.2860   -4.0660 C.3    51  ILE51       0.0022
     83  CD1      -10.5780   11.9470   -3.9920 C.3    51  ILE51       0.0001
     84  N         -4.5860   18.4240   13.4650 N.3    77  LEU77      -0.1245
     85  CA        -3.8980   17.1620   13.2130 C.3    77  LEU77       0.1561
     86  C         -2.5520   17.4430   12.5680 C.2    77  LEU77       0.2260
     87  O         -2.4000   18.4070   11.7990 O.2    77  LEU77      -0.2867
     88  CB        -4.7360   16.2610   12.2920 C.3    77  LEU77       0.0270
     89  CG        -6.1950   16.0250   12.7080 C.3    77  LEU77       0.0019
     90  CD1       -6.9280   15.2040   11.6420 C.3    77  LEU77       0.0001
     91  CD2       -6.2710   15.3700   14.0720 C.3    77  LEU77       0.0001
     92  N          0.7570   14.8020    5.4190 N.3    81  THR81      -0.1204
     93  CA        -0.0880   15.3930    4.3730 C.3    81  THR81       0.1979
     94  C          0.7710   16.1340    3.3480 C.2    81  THR81       0.2460
     95  O          1.7830   16.7360    3.7210 O.2    81  THR81      -0.2732
     96  CB        -1.1160   16.3850    4.9830 C.3    81  THR81       0.1783
     97  OG1       -1.8840   16.9910    3.9340 O.3    81  THR81      -0.2211
     98  CG2       -0.4200   17.4920    5.7870 C.3    81  THR81       0.0376
     99  N          0.3840   16.0920    2.0570 N.am   82  PRO82      -0.2717
    100  CA         1.0620   16.8690    1.0040 C.3    82  PRO82       0.1535
    101  C          0.8980   18.3940    1.1050 C.2    82  PRO82       0.2598
    102  O          1.7340   19.1380    0.5830 O.2    82  PRO82      -0.2715
    103  CB         0.3910   16.3790   -0.2780 C.3    82  PRO82       0.0310
    104  CG        -0.2920   15.1020    0.0880 C.3    82  PRO82       0.0237
    105  CD        -0.6990   15.2560    1.5020 C.3    82  PRO82       0.0939
    106  N         -0.1720   18.8520    1.7560 N.am   83  ALA83      -0.1978
    107  CA        -0.3890   20.2810    1.9540 C.3    83  ALA83       0.1597
    108  C         -1.0360   20.5180    3.3100 C.2    83  ALA83       0.2287
    109  O         -1.7810   19.6640    3.8010 O.2    83  ALA83      -0.2864
    110  CB        -1.2780   20.8420    0.8410 C.3    83  ALA83       0.0319
    111  N         -3.8580   21.9910    5.4170 N.3    85  ILE85      -0.1245
    112  CA        -5.2810   22.1000    5.0980 C.3    85  ILE85       0.1561
    113  C         -6.0690   22.6620    6.2870 C.2    85  ILE85       0.2260
    114  O         -5.9800   22.1330    7.4060 O.2    85  ILE85      -0.2867
    115  CB        -5.8450   20.6910    4.7750 C.3    85  ILE85       0.0252
    116  CG1       -5.2930   20.1840    3.4370 C.3    85  ILE85       0.0019
    117  CG2       -7.3690   20.6770    4.7460 C.3    85  ILE85       0.0019
    118  CD1       -5.4620   18.6900    3.2520 C.3    85  ILE85       0.0001
@<TRIPOS>BOND
     1     1     2    1
     2     6     7    1
     3     6     5    1
     4     8     7    1
     5     8     9    2
     6    10     9    1
     7     2     5    1
     8     2     3    1
     9     9    11    1
    10    82    80    1
    11    83    81    1
    12     4     3    2
    13    81    80    1
    14    80    77    1
    15    78    77    1
    16    78    79    2
    17    77    76    1
    18    18    17    1
    19    19    17    1
    20    76    74   am
    21   103   104    1
    22   103   100    1
    23    17    16    1
    24   104   105    1
    25   102   101    2
    26    74    75    2
    27    74    73    1
    28   110   107    1
    29    26    25   ar
    30   100   101    1
    31   100    99    1
    32    16    13    1
    33   101   106   am
    34   105    99    1
    35    29    28    1
    36    29    30    1
    37    25    27   ar
    38    25    24    1
    39   106   107    1
    40    13    14    1
    41    13    12    1
    42   107   108    1
    43    99    94   am
    44    73    72    1
    45    21    24    1
    46    21    22    1
    47    21    20    1
    48    14    15    2
    49    22    23    2
    50    30    31    2
    51    30    32   am
    52    72    70   am
    53   118   116    1
    54   108   109    2
    55    94    95    2
    56    94    93    1
    57   116   115    1
    58    32    33    1
    59    97    96    1
    60    70    71    2
    61    70    69    1
    62    93    96    1
    63    93    92    1
    64   117   115    1
    65   115   112    1
    66    33    36    1
    67    33    34    1
    68    96    98    1
    69   112   111    1
    70   112   113    1
    71    69    68    1
    72    34    35    2
    73    34    37   am
    74   113   114    2
    75    68    63   am
    76    64    63    2
    77    59    57    1
    78    37    38    1
    79    43    42   ar
    80    63    62    1
    81    66    65    1
    82    56    55    2
    83    42    44   ar
    84    42    41    1
    85    38    41    1
    86    38    39    1
    87    48    47    2
    88    57    58    1
    89    57    54    1
    90    65    62    1
    91    65    67    1
    92    55    54    1
    93    58    60    1
    94    62    61    1
    95    53    54    1
    96    45    39   am
    97    45    46    1
    98    39    40    2
    99    47    46    1
   100    46    49    1
   101    49    50    1
   102    52    50   ar
   103    50    51   ar
   104    90    89    1
   105    87    86    2
   106    88    89    1
   107    88    85    1
   108    86    85    1
   109    89    91    1
   110    85    84    1
