@<TRIPOS>MOLECULE
tmp/2rkiA00.pdb
 181 181 0 0 0
SMALL
GASTEIGER

@<TRIPOS>ATOM
      1  N         11.4150   21.8850   20.9660 N.3    95  PRO95      -0.2116
      2  CA        10.5280   21.7480   19.8080 C.3    95  PRO95       0.1372
      3  C          9.0680   21.8600   20.2280 C.2    95  PRO95       0.2244
      4  O          8.6950   21.4530   21.3360 O.2    95  PRO95      -0.2868
      5  CB        10.8550   20.3580   19.2600 C.3    95  PRO95       0.0268
      6  CG        12.2570   20.0700   19.7860 C.3    95  PRO95       0.0207
      7  CD        12.3440   20.7500   21.1160 C.3    95  PRO95       0.0892
      8  N          5.6210   20.1580   19.0190 N.3    97  PRO97      -0.2116
      9  CA         5.1410   19.0800   18.1450 C.3    97  PRO97       0.1372
     10  C          4.6930   19.5610   16.7550 C.2    97  PRO97       0.2244
     11  O          5.0380   18.9480   15.7440 O.2    97  PRO97      -0.2868
     12  CB         3.9900   18.4670   18.9370 C.3    97  PRO97       0.0268
     13  CG         4.3530   18.7450   20.3890 C.3    97  PRO97       0.0207
     14  CD         5.0140   20.1090   20.3610 C.3    97  PRO97       0.0892
     15  N          7.1670   19.6080   13.8700 N.3   100  LEU100     -0.1231
     16  CA         7.8210   18.3640   13.4450 C.3   100  LEU100      0.1693
     17  C          7.3080   17.9020   12.0840 C.2   100  LEU100      0.2591
     18  O          6.1030   17.7410   11.8890 O.2   100  LEU100     -0.2718
     19  CB         7.5710   17.2420   14.4610 C.3   100  LEU100      0.0284
     20  CG         7.9480   17.4940   15.9150 C.3   100  LEU100      0.0019
     21  CD1        7.3980   16.3780   16.7720 C.3   100  LEU100      0.0001
     22  CD2        9.4540   17.6100   16.0450 C.3   100  LEU100      0.0001
     23  N          8.2330   17.6760   11.1550 N.am  101  LYS101     -0.1980
     24  CA         7.8830   17.1850    9.8300 C.3   101  LYS101      0.1596
     25  C          7.2330   15.8070    9.8800 C.2   101  LYS101      0.2287
     26  O          7.6540   14.9410   10.6350 O.2   101  LYS101     -0.2864
     27  CB         9.1290   17.1210    8.9580 C.3   101  LYS101      0.0298
     28  CG         9.7410   18.4780    8.7020 C.3   101  LYS101      0.0038
     29  CD        11.0060   18.3590    7.8840 C.3   101  LYS101      0.0206
     30  CE        11.9310   19.5420    8.1390 C.3   101  LYS101      0.1093
     31  NZ        11.1880   20.7980    7.9270 N.3   101  LYS101     -0.1314
     32  N          6.9400   12.1960    9.0500 N.3   103  LYS103     -0.1231
     33  CA         8.0010   11.2530    8.7100 C.3   103  LYS103      0.1693
     34  C          7.6090    9.8070    8.9540 C.2   103  LYS103      0.2592
     35  O          6.6880    9.5220    9.7170 O.2   103  LYS103     -0.2718
     36  CB         9.2780   11.5870    9.4870 C.3   103  LYS103      0.0285
     37  CG         9.0760   11.8020   10.9710 C.3   103  LYS103      0.0035
     38  CD        10.4130   12.0570   11.6700 C.3   103  LYS103      0.0206
     39  CE        10.9650   13.4380   11.3490 C.3   103  LYS103      0.1093
     40  NZ        10.0730   14.5050   11.8600 N.3   103  LYS103     -0.1314
     41  N          8.3160    8.8930    8.2990 N.am  104  LYS104     -0.1966
     42  CA         8.0010    7.4740    8.4070 C.3   104  LYS104      0.1728
     43  C          8.2200    6.9110    9.8140 C.2   104  LYS104      0.2617
     44  O          7.3290    6.2900   10.3920 O.2   104  LYS104     -0.2715
     45  CB         8.8330    6.6760    7.4020 C.3   104  LYS104      0.0311
     46  CG         8.3150    6.7220    5.9750 C.3   104  LYS104      0.0038
     47  CD         7.5800    5.4310    5.6220 C.3   104  LYS104      0.0206
     48  CE         6.8790    5.5430    4.2720 C.3   104  LYS104      0.1093
     49  NZ         6.0120    4.3590    3.9950 N.3   104  LYS104     -0.1314
     50  N          9.4050    7.1050   10.3750 N.am  105  SER105     -0.1936
     51  CA         9.6750    6.4570   11.6480 C.3   105  SER105      0.2055
     52  C         10.5740    7.2380   12.5910 C.2   105  SER105      0.2642
     53  O         11.4240    8.0320   12.1710 O.2   105  SER105     -0.2714
     54  CB        10.2380    5.0350   11.4200 C.3   105  SER105      0.2130
     55  OG        11.3040    5.0170   10.4860 O.3   105  SER105     -0.2179
     56  N         10.3520    7.0020   13.8790 N.am  106  VAL106     -0.1977
     57  CA        11.1310    7.6210   14.9430 C.3   106  VAL106      0.1596
     58  C         11.4820    6.5720   15.9840 C.2   106  VAL106      0.2287
     59  O         10.6150    5.8300   16.4640 O.2   106  VAL106     -0.2864
     60  CB        10.3350    8.7560   15.6410 C.3   106  VAL106      0.0276
     61  CG1       11.0630    9.2060   16.9010 C.3   106  VAL106      0.0022
     62  CG2       10.1650    9.9310   14.6860 C.3   106  VAL106      0.0022
     63  N         17.3590   12.4760   10.9940 N.3   179  VAL179     -0.1231
     64  CA        17.3400   13.5470   11.9840 C.3   179  VAL179      0.1692
     65  C         17.3220   13.0400   13.4220 C.2   179  VAL179      0.2592
     66  O         16.6940   12.0220   13.7370 O.2   179  VAL179     -0.2718
     67  CB        16.1410   14.5230   11.7670 C.3   179  VAL179      0.0266
     68  CG1       16.3520   15.3290   10.4880 C.3   179  VAL179      0.0020
     69  CG2       14.8380   13.7600   11.7060 C.3   179  VAL179      0.0020
     70  N         18.0160   13.7720   14.2880 N.am  180  ILE180     -0.1966
     71  CA        18.1500   13.3970   15.6850 C.3   180  ILE180      0.1727
     72  C         17.8160   14.5680   16.5990 C.2   180  ILE180      0.2616
     73  O         18.4890   15.6030   16.5700 O.2   180  ILE180     -0.2715
     74  CB        19.6010   12.9710   16.0080 C.3   180  ILE180      0.0290
     75  CG1       20.0160   11.8020   15.1170 C.3   180  ILE180      0.0022
     76  CG2       19.7180   12.6200   17.4940 C.3   180  ILE180      0.0023
     77  CD1       21.5230   11.5650   15.1050 C.3   180  ILE180      0.0001
     78  N         16.8010   14.4010   17.4310 N.am  181  TYR181     -0.1974
     79  CA        16.5590   15.3700   18.4910 C.3   181  TYR181      0.1639
     80  C         17.1680   14.9530   19.8380 C.2   181  TYR181      0.2290
     81  O         16.8190   13.9110   20.3800 O.2   181  TYR181     -0.2864
     82  CB        15.0590   15.6000   18.6670 C.3   181  TYR181      0.0560
     83  CG        14.7620   16.5340   19.8130 C.ar  181  TYR181     -0.0198
     84  CD1       15.3590   17.7970   19.8740 C.ar  181  TYR181     -0.0009
     85  CD2       13.9430   16.1350   20.8730 C.ar  181  TYR181     -0.0009
     86  CE1       15.1640   18.6350   20.9680 C.ar  181  TYR181      0.0417
     87  CE2       13.7380   16.9690   21.9660 C.ar  181  TYR181      0.0417
     88  CZ        14.3530   18.2120   22.0080 C.ar  181  TYR181      0.1957
     89  OH        14.1450   19.0390   23.0920 O.3   181  TYR181     -0.2866
     90  N         16.0390   11.1170   20.1120 N.3   188  TYR188     -0.1227
     91  CA        14.9550   10.7440   19.2020 C.3   188  TYR188      0.1736
     92  C         15.4920   10.7850   17.7850 C.2   188  TYR188      0.2595
     93  O         16.1280   11.7610   17.3780 O.2   188  TYR188     -0.2718
     94  CB        13.7630   11.7010   19.3430 C.3   188  TYR188      0.0548
     95  CG        13.0040   11.5460   20.6370 C.ar  188  TYR188     -0.0200
     96  CD1       13.3430   12.2870   21.7580 C.ar  188  TYR188     -0.0009
     97  CD2       11.9540   10.6490   20.7400 C.ar  188  TYR188     -0.0009
     98  CE1       12.6520   12.1390   22.9560 C.ar  188  TYR188      0.0417
     99  CE2       11.2550   10.4880   21.9280 C.ar  188  TYR188      0.0417
    100  CZ        11.6080   11.2360   23.0330 C.ar  188  TYR188      0.1957
    101  OH        10.9110   11.0760   24.2140 O.3   188  TYR188     -0.2866
    102  N         15.2520    9.7120   17.0440 N.am  189  VAL189     -0.1966
    103  CA        15.8860    9.5170   15.7430 C.3   189  VAL189      0.1727
    104  C         14.8130    9.2270   14.6960 C.2   189  VAL189      0.2616
    105  O         14.0640    8.2590   14.8140 O.2   189  VAL189     -0.2715
    106  CB        16.8880    8.3310   15.8050 C.3   189  VAL189      0.0290
    107  CG1       17.6110    8.1770   14.4740 C.3   189  VAL189      0.0023
    108  CG2       17.8810    8.5550   16.9290 C.3   189  VAL189      0.0023
    109  N         14.7320   10.0740   13.6800 N.am  190  GLY190     -0.1955
    110  CA        13.6350    9.9590   12.7330 C.3   190  GLY190      0.1869
    111  C         14.1040    9.9320   11.2880 C.2   190  GLY190      0.2309
    112  O         15.1770   10.4410   10.9710 O.2   190  GLY190     -0.2863
    113  N          6.0980    4.1040   20.6310 N.3   225  PRO225     -0.2116
    114  CA         5.0750    5.1530   20.5920 C.3   225  PRO225      0.1372
    115  C          3.8170    4.6220   21.2500 C.2   225  PRO225      0.2244
    116  O          3.5900    3.4180   21.2580 O.2   225  PRO225     -0.2868
    117  CB         4.8610    5.3960   19.1010 C.3   225  PRO225      0.0268
    118  CG         6.1040    4.8830   18.4510 C.3   225  PRO225      0.0207
    119  CD         6.5470    3.7270   19.2800 C.3   225  PRO225      0.0892
    120  N          5.0550    8.4240   22.2860 N.3   227  PHE227     -0.1241
    121  CA         6.0990    9.0290   23.0990 C.3   227  PHE227      0.1605
    122  C          5.5060   10.0760   24.0270 C.2   227  PHE227      0.2264
    123  O          4.7420   10.9440   23.5930 O.2   227  PHE227     -0.2867
    124  CB         7.1490    9.6790   22.2020 C.3   227  PHE227      0.0534
    125  CG         7.8300    8.7150   21.2860 C.ar  227  PHE227     -0.0203
    126  CD1        8.3200    7.5160   21.7730 C.ar  227  PHE227     -0.0042
    127  CD2        7.9900    9.0070   19.9430 C.ar  227  PHE227     -0.0042
    128  CE1        8.9590    6.6250   20.9390 C.ar  227  PHE227     -0.0003
    129  CE2        8.6310    8.1180   19.1020 C.ar  227  PHE227     -0.0003
    130  CZ         9.1170    6.9250   19.6030 C.ar  227  PHE227     -0.0000
    131  N          6.2770   13.1850   26.3840 N.3   229  TRP229     -0.1241
    132  CA         7.3850   14.1210   26.3980 C.3   229  TRP229      0.1605
    133  C          6.9310   15.5420   26.6590 C.2   229  TRP229      0.2264
    134  O          6.0730   16.0610   25.9530 O.2   229  TRP229     -0.2867
    135  CB         8.1210   14.0530   25.0590 C.3   229  TRP229      0.0550
    136  CG         9.2140   15.0390   24.9520 C.ar  229  TRP229      0.0003
    137  CD1       10.4570   14.9470   25.4990 C.ar  229  TRP229      0.0946
    138  CD2        9.1570   16.3010   24.2840 C.ar  229  TRP229      0.0152
    139  NE1       11.1800   16.0780   25.2180 N.ar  229  TRP229     -0.2442
    140  CE2       10.4050   16.9270   24.4720 C.ar  229  TRP229      0.0810
    141  CE3        8.1720   16.9610   23.5420 C.ar  229  TRP229      0.0012
    142  CZ2       10.6980   18.1870   23.9480 C.ar  229  TRP229      0.0191
    143  CZ3        8.4650   18.2140   23.0190 C.ar  229  TRP229      0.0001
    144  CH2        9.7210   18.8140   23.2270 C.ar  229  TRP229      0.0015
    145  N          2.8890   11.8200   21.6490 N.3   234  LEU234     -0.1231
    146  CA         3.3600   11.8800   20.2700 C.3   234  LEU234      0.1693
    147  C          3.1650   10.5650   19.5390 C.2   234  LEU234      0.2592
    148  O          3.8160    9.5730   19.8570 O.2   234  LEU234     -0.2718
    149  CB         4.8390   12.2550   20.2370 C.3   234  LEU234      0.0284
    150  CG         5.2100   13.7360   20.3530 C.3   234  LEU234      0.0019
    151  CD1        4.0320   14.5530   20.8180 C.3   234  LEU234      0.0001
    152  CD2        6.3890   13.8740   21.3140 C.3   234  LEU234      0.0001
    153  N          2.2710   10.5670   18.5550 N.am  235  HIS235     -0.1962
    154  CA         2.0040    9.3830   17.7410 C.3   235  HIS235      0.1772
    155  C          2.6080    9.5440   16.3490 C.2   235  HIS235      0.2462
    156  O          3.0070   10.6370   15.9560 O.2   235  HIS235     -0.2730
    157  CB         0.4990    9.1550   17.6080 C.3   235  HIS235      0.0785
    158  CG        -0.2230    9.0550   18.9130 C.ar  235  HIS235      0.0821
    159  ND1       -0.8030    7.8860   19.3520 N.ar  235  HIS235     -0.2267
    160  CD2       -0.5190    9.9930   19.8450 C.ar  235  HIS235      0.1154
    161  CE1       -1.4310    8.1070   20.4930 C.ar  235  HIS235      0.1986
    162  NE2       -1.2750    9.3780   20.8140 N.ar  235  HIS235     -0.2212
    163  N          2.6650    8.4540   15.5750 N.am  236  PRO236     -0.2727
    164  CA         3.2410    8.5240   14.2280 C.3   236  PRO236      0.1402
    165  C          2.6080    9.5100   13.2430 C.2   236  PRO236      0.2269
    166  O          3.3080   10.0350   12.3840 O.2   236  PRO236     -0.2865
    167  CB         3.1800    7.0770   13.7280 C.3   236  PRO236      0.0296
    168  CG         2.2060    6.3820   14.6300 C.3   236  PRO236      0.0237
    169  CD         2.2760    7.0830   15.9470 C.3   236  PRO236      0.0939
    170  N          0.9740   16.8420   11.9500 N.3   318  TYR318     -0.1241
    171  CA         2.3630   17.2650   11.7860 C.3   318  TYR318      0.1605
    172  C          2.5780   18.1480   10.5610 C.2   318  TYR318      0.2264
    173  O          1.6540   18.4050    9.7980 O.2   318  TYR318     -0.2867
    174  CB         3.3050   16.0500   11.7170 C.3   318  TYR318      0.0534
    175  CG         3.4080   15.2910   13.0220 C.ar  318  TYR318     -0.0201
    176  CD1        3.9650   15.8850   14.1570 C.ar  318  TYR318     -0.0009
    177  CD2        2.9390   13.9890   13.1280 C.ar  318  TYR318     -0.0009
    178  CE1        4.0480   15.2000   15.3590 C.ar  318  TYR318      0.0417
    179  CE2        3.0150   13.2990   14.3190 C.ar  318  TYR318      0.0417
    180  CZ         3.5680   13.9090   15.4340 C.ar  318  TYR318      0.1957
    181  OH         3.6030   13.2210   16.6260 O.3   318  TYR318     -0.2866
@<TRIPOS>BOND
     1    49    48    1
     2    48    47    1
     3    47    46    1
     4    46    45    1
     5    45    42    1
     6    29    30    1
     7    29    28    1
     8    31    30    1
     9    41    42    1
    10    41    34   am
    11    42    43    1
    12    28    27    1
    13    33    34    1
    14    33    32    1
    15    33    36    1
    16    34    35    2
    17    27    24    1
    18    36    37    1
    19   173   172    2
    20    43    50   am
    21    43    44    2
    22    24    25    1
    23    24    23    1
    24    25    26    2
    25    50    51    1
    26    55    54    1
    27    68    67    1
    28   172   171    1
    29    37    38    1
    30   112   111    2
    31    63    64    1
    32    23    17   am
    33   111   110    1
    34    39    38    1
    35    39    40    1
    36    54    51    1
    37    51    52    1
    38    69    67    1
    39   174   171    1
    40   174   175    1
    41    67    64    1
    42   171   170    1
    43    18    17    2
    44    64    65    1
    45    17    16    1
    46    53    52    2
    47   166   165    2
    48    52    56   am
    49   110   109    1
    50   175   177   ar
    51   175   176   ar
    52   177   179   ar
    53   165   164    1
    54    65    66    2
    55    65    70   am
    56    16    15    1
    57    16    19    1
    58   109   104   am
    59   167   164    1
    60   167   168    1
    61    56    57    1
    62   176   178   ar
    63   164   163    1
    64    70    71    1
    65   179   180   ar
    66    19    20    1
    67   107   106    1
    68   168   169    1
    69    62    60    1
    70   104   105    2
    71   104   103    1
    72    57    60    1
    73    57    58    1
    74    77    75    1
    75    75    74    1
    76   178   180   ar
    77   180   181    1
    78   163   169    1
    79   163   155   am
    80    60    61    1
    81    71    74    1
    82    71    72    1
    83   103   106    1
    84   103   102    1
    85    11    10    2
    86   106   108    1
    87    20    22    1
    88    20    21    1
    89   156   155    2
    90    58    59    2
    91    74    76    1
    92   155   154    1
    93    73    72    2
    94    72    78   am
    95    10     9    1
    96   102    92   am
    97    93    92    2
    98    78    79    1
    99   157   154    1
   100   157   158    1
   101   154   153    1
   102    92    91    1
   103     9    12    1
   104     9     8    1
   105   118   117    1
   106   118   119    1
   107    79    82    1
   108    79    80    1
   109   153   147   am
   110    82    83    1
   111   158   159   ar
   112   158   160   ar
   113    12    13    1
   114     8    14    1
   115   117   114    1
   116   129   130   ar
   117   129   127   ar
   118    91    94    1
   119    91    90    1
   120     5     6    1
   121     5     2    1
   122   119   113    1
   123    94    95    1
   124   159   161   ar
   125   147   148    2
   126   147   146    1
   127   130   128   ar
   128     6     7    1
   129     2     3    1
   130     2     1    1
   131    83    84   ar
   132    83    85   ar
   133    80    81    2
   134   160   162   ar
   135    84    86   ar
   136   127   125   ar
   137     3     4    2
   138   149   146    1
   139   149   150    1
   140   146   145    1
   141   150   151    1
   142   150   152    1
   143    14    13    1
   144   161   162   ar
   145   114   113    1
   146   114   115    1
   147    95    97   ar
   148    95    96   ar
   149    97    99   ar
   150    85    87   ar
   151   128   126   ar
   152     1     7    1
   153    86    88   ar
   154   115   116    2
   155   125   126   ar
   156   125   124    1
   157    96    98   ar
   158    99   100   ar
   159    87    88   ar
   160    88    89    1
   161   124   121    1
   162   120   121    1
   163    98   100   ar
   164   143   144   ar
   165   143   141   ar
   166   100   101    1
   167   121   122    1
   168   144   142   ar
   169   141   138   ar
   170   123   122    2
   171   142   140   ar
   172   138   140   ar
   173   138   136   ar
   174   140   139   ar
   175   136   135    1
   176   136   137   ar
   177   135   132    1
   178   139   137   ar
   179   134   133    2
   180   131   132    1
   181   132   133    1
