@<TRIPOS>MOLECULE
tmp/2rkmA00.pdb
 119 116 0 0 0
SMALL
GASTEIGER

@<TRIPOS>ATOM
      1  N          8.8510   24.1950   12.3780 N.3    32  GLU32      -0.1182
      2  CA         8.6590   23.2050   13.4400 C.3    32  GLU32       0.1915
      3  C          7.2970   22.5290   13.4260 C.2    32  GLU32       0.2635
      4  O          7.1380   21.5470   14.1730 O.2    32  GLU32      -0.2714
      5  CB         8.8760   23.8880   14.7980 C.2    32  GLU32       0.0085
      6  CG         9.2530   22.9900   15.9570 C.2    32  GLU32       0.0835
      7  CD         9.3910   23.6800   17.2920 C.2    32  GLU32       0.3877
      8  OE1        8.9300   24.8220   17.4680 O.co2  32  GLU32      -0.2406
      9  OE2        9.9890   23.0940   18.2300 O.co2  32  GLU32      -0.2406
     10  N          6.3300   22.9900   12.6240 N.am   33  GLY33      -0.1939
     11  CA         4.9960   22.3860   12.7150 C.3    33  GLY33       0.2014
     12  C          4.4810   21.5520   11.5670 C.2    33  GLY33       0.2638
     13  O          5.0720   21.4040   10.4970 O.2    33  GLY33      -0.2714
     14  N          3.2630   21.0240   11.7580 N.am   34  VAL34      -0.1977
     15  CA         2.5620   20.2110   10.7710 C.3    34  VAL34       0.1596
     16  C          2.2790   20.9160    9.4640 C.2    34  VAL34       0.2287
     17  O          2.5770   20.4070    8.3650 O.2    34  VAL34      -0.2864
     18  CB         1.2900   19.5840   11.3920 C.3    34  VAL34       0.0276
     19  CG1        0.4630   18.8540   10.3420 C.3    34  VAL34       0.0022
     20  CG2        1.7010   18.5960   12.4870 C.3    34  VAL34       0.0022
     21  N          5.5180   21.3470    7.5160 N.3    37  SER37      -0.1217
     22  CA         6.0090   20.0720    6.9890 C.3    37  SER37       0.1889
     23  C          5.1880   19.5700    5.8100 C.2    37  SER37       0.2288
     24  O          5.7180   18.9510    4.8860 O.2    37  SER37      -0.2866
     25  CB         6.0750   19.0270    8.1150 C.3    37  SER37       0.2089
     26  OG         7.0040   19.4640    9.1150 O.3    37  SER37      -0.2183
     27  N          7.4030   18.7030    2.3370 N.3    41  ARG41      -0.1245
     28  CA         7.5520   17.4030    1.6800 C.3    41  ARG41       0.1563
     29  C          7.4030   17.4780    0.1600 C.2    41  ARG41       0.2260
     30  O          8.0040   16.6610   -0.5600 O.2    41  ARG41      -0.2867
     31  CB         6.5720   16.3800    2.2830 C.3    41  ARG41       0.0307
     32  CG         6.9440   15.8820    3.6720 C.3    41  ARG41       0.0489
     33  CD         6.0940   14.6980    4.1230 C.3    41  ARG41       0.2205
     34  NE         4.6880   15.0940    4.2760 N.pl3  41  ARG41      -0.0865
     35  CZ         4.1380   15.7320    5.2950 C.cat  41  ARG41       0.5346
     36  NH1        4.8480   16.0740    6.3670 N.pl3  41  ARG41       0.1354
     37  NH2        2.8330   16.0280    5.2780 N.pl3  41  ARG41       0.1354
     38  N         14.6920   23.1290   15.3040 N.3   109  TYR109     -0.1241
     39  CA        15.0520   21.7290   15.2080 C.3   109  TYR109      0.1605
     40  C         16.5620   21.5040   15.2190 C.2   109  TYR109      0.2264
     41  O         17.0600   20.4290   14.8600 O.2   109  TYR109     -0.2867
     42  CB        14.4150   21.0930   13.9670 C.3   109  TYR109      0.0534
     43  CG        13.1270   20.3350   14.2490 C.ar  109  TYR109     -0.0201
     44  CD1       13.1450   19.0880   14.8490 C.ar  109  TYR109     -0.0009
     45  CD2       11.8890   20.8730   13.9160 C.ar  109  TYR109     -0.0009
     46  CE1       11.9790   18.3870   15.1000 C.ar  109  TYR109      0.0417
     47  CE2       10.7120   20.1870   14.1720 C.ar  109  TYR109      0.0417
     48  CZ        10.7600   18.9460   14.7600 C.ar  109  TYR109      0.1957
     49  OH         9.6020   18.2320   15.0010 O.3   109  TYR109     -0.2866
     50  N         12.4440   13.5740    7.9260 N.3   161  HIS161     -0.1227
     51  CA        12.0270   14.8670    8.4660 C.3   161  HIS161      0.1737
     52  C         12.5890   16.0340    7.6950 C.2   161  HIS161      0.2438
     53  O         13.7470   16.0250    7.2500 O.2   161  HIS161     -0.2733
     54  CB        12.4830   14.9030    9.9420 C.3   161  HIS161      0.0758
     55  CG        11.8560   16.0290   10.7040 C.ar  161  HIS161      0.0818
     56  ND1       12.5110   17.2160   10.9680 N.ar  161  HIS161     -0.2268
     57  CD2       10.6150   16.1440   11.2400 C.ar  161  HIS161      0.1154
     58  CE1       11.6980   18.0190   11.6330 C.ar  161  HIS161      0.1986
     59  NE2       10.5390   17.3890   11.8210 N.ar  161  HIS161     -0.2212
     60  N         11.8390   17.1190    7.5450 N.am  162  PRO162     -0.2729
     61  CA        12.2190   18.3000    6.7960 C.3   162  PRO162      0.1401
     62  C         13.4870   19.0060    7.2450 C.2   162  PRO162      0.2269
     63  O         14.2210   19.5620    6.4120 O.2   162  PRO162     -0.2865
     64  CB        11.0540   19.3130    6.9100 C.3   162  PRO162      0.0296
     65  CG         9.9050   18.4030    7.2370 C.3   162  PRO162      0.0237
     66  CD        10.4300   17.1860    7.9680 C.3   162  PRO162      0.0939
     67  N          0.1990   20.3000   21.0170 N.3   415  GLY415     -0.1210
     68  CA         0.1630   18.9770   20.3960 C.3   415  GLY415      0.1956
     69  C          1.6100   18.6220   20.0250 C.2   415  GLY415      0.2612
     70  O          2.4260   19.5240   19.8000 O.2   415  GLY415     -0.2717
     71  N          1.9190   17.3370   19.9920 N.am  416  TRP416     -0.1962
     72  CA         3.2100   16.8850   19.4670 C.3   416  TRP416      0.1771
     73  C          2.9010   15.6510   18.6070 C.2   416  TRP416      0.2620
     74  O          2.2240   14.7730   19.1380 O.2   416  TRP416     -0.2715
     75  CB         4.2720   16.4980   20.4900 C.3   416  TRP416      0.0590
     76  CG         5.6020   16.1490   19.8650 C.ar  416  TRP416      0.0006
     77  CD1        6.1430   14.9000   19.7260 C.ar  416  TRP416      0.0946
     78  CD2        6.5490   17.0570   19.2890 C.ar  416  TRP416      0.0152
     79  NE1        7.3710   14.9790   19.1010 N.ar  416  TRP416     -0.2442
     80  CE2        7.6410   16.2920   18.8320 C.ar  416  TRP416      0.0810
     81  CE3        6.5780   18.4480   19.1310 C.ar  416  TRP416      0.0012
     82  CZ2        8.7580   16.8610   18.2180 C.ar  416  TRP416      0.0191
     83  CZ3        7.6860   19.0130   18.5220 C.ar  416  TRP416      0.0001
     84  CH2        8.7570   18.2250   18.0700 C.ar  416  TRP416      0.0015
     85  N          3.3610   15.6180   17.3620 N.am  417  CYS417     -0.1954
     86  CA         3.1880   14.4480   16.5120 C.3   417  CYS417      0.1843
     87  C          4.5880   13.8660   16.2180 C.2   417  CYS417      0.2625
     88  O          5.5270   14.6460   16.0050 O.2   417  CYS417     -0.2714
     89  CB         2.5270   14.7230   15.1710 C.3   417  CYS417      0.0997
     90  SG         0.8390   15.3630   15.2480 S.3   417  CYS417     -0.0797
     91  N          4.7070   12.5530   16.2470 N.am  418  ALA418     -0.1963
     92  CA         5.9960   11.9080   16.0090 C.3   418  ALA418      0.1728
     93  C          6.6300   12.3250   14.6830 C.2   418  ALA418      0.2616
     94  O          5.9490   12.5070   13.6780 O.2   418  ALA418     -0.2715
     95  CB         5.8120   10.3880   15.9900 C.3   418  ALA418      0.0334
     96  N          7.9590   12.4170   14.6800 N.am  419  ASP419     -0.1971
     97  CA         8.7420   12.7020   13.4870 C.3   419  ASP419      0.1709
     98  C          9.2910   11.3780   12.9480 C.2   419  ASP419      0.2293
     99  O          9.5910   11.2250   11.7680 O.2   419  ASP419     -0.2864
    100  CB         9.9100   13.6460   13.8090 C.3   419  ASP419      0.1436
    101  CG         9.4430   15.0250   14.2470 C.2   419  ASP419      0.3671
    102  OD1        8.4590   15.5410   13.6810 O.co2 419  ASP419     -0.2456
    103  OD2       10.0620   15.6140   15.1510 O.co2 419  ASP419     -0.2456
    104  N          2.1040    8.4830   10.7990 N.3   504  LEU504     -0.1245
    105  CA         2.7360    9.7930   10.8900 C.3   504  LEU504      0.1561
    106  C          2.0830   10.7830    9.9260 C.2   504  LEU504      0.2260
    107  O          2.3330   11.9890   10.0000 O.2   504  LEU504     -0.2867
    108  CB         4.2390    9.7110   10.6100 C.3   504  LEU504      0.0270
    109  CG         5.0610    8.7760   11.5050 C.3   504  LEU504      0.0019
    110  CD1        6.5540    9.0060   11.3140 C.3   504  LEU504      0.0001
    111  CD2        4.6860    8.9230   12.9670 C.3   504  LEU504      0.0001
    112  N          2.6060   11.3340    6.6530 N.3   506  ASN506     -0.1240
    113  CA         3.5510   12.0630    5.8020 C.3   506  ASN506      0.1653
    114  C          3.1580   11.9920    4.3290 C.2   506  ASN506      0.2266
    115  O          3.7960   11.3010    3.5420 O.2   506  ASN506     -0.2867
    116  CB         4.9530   11.4940    6.0100 C.3   506  ASN506      0.1155
    117  CG         5.5810   12.0280    7.2820 C.2   506  ASN506      0.2627
    118  OD1        5.4400   13.1950    7.6320 O.2   506  ASN506     -0.2716
    119  ND2        6.2790   11.1290    7.9680 N.am  506  ASN506     -0.0877
@<TRIPOS>BOND
     1    30    29    2
     2    29    28    1
     3    28    31    1
     4    28    27    1
     5    31    32    1
     6   115   114    2
     7    32    33    1
     8    33    34    1
     9    34    35    2
    10   114   113    1
    11    24    23    2
    12    37    35    1
    13    35    36    1
    14   113   116    1
    15   113   112    1
    16    23    22    1
    17   116   117    1
    18    63    62    2
    19    61    64    1
    20    61    62    1
    21    61    60    1
    22    64    65    1
    23    22    21    1
    24    22    25    1
    25    65    66    1
    26    53    52    2
    27   117   118    2
    28   117   119   am
    29    60    52   am
    30    60    66    1
    31    52    51    1
    32    50    51    1
    33    25    26    1
    34    17    16    2
    35    51    54    1
    36    16    15    1
    37   106   107    2
    38   106   105    1
    39    54    55    1
    40    19    18    1
    41    13    12    2
    42   108   105    1
    43   108   109    1
    44    55    56   ar
    45    55    57   ar
    46    15    18    1
    47    15    14    1
    48   104   105    1
    49    56    58   ar
    50    57    59   ar
    51   110   109    1
    52    18    20    1
    53   109   111    1
    54    12    14   am
    55    12    11    1
    56    58    59   ar
    57    99    98    2
    58     1     2    1
    59    10    11    1
    60    10     3   am
    61    98    97    1
    62     3     2    1
    63     3     4    2
    64     2     5    1
    65    97   100    1
    66    97    96    1
    67    94    93    2
    68   102   101   ar
    69   100   101    1
    70    45    47   ar
    71    45    43   ar
    72    42    43    1
    73    42    39    1
    74    47    48   ar
    75   101   103   ar
    76    43    44   ar
    77    96    93   am
    78    93    92    1
    79    48    49    1
    80    48    46   ar
    81     5     6    2
    82    44    46   ar
    83    41    40    2
    84    89    90    1
    85    89    86    1
    86    39    40    1
    87    39    38    1
    88     6     7    1
    89    95    92    1
    90    88    87    2
    91    92    91    1
    92    87    91   am
    93    87    86    1
    94    86    85    1
    95     7     8   ar
    96     7     9   ar
    97    85    73   am
    98    84    82   ar
    99    84    83   ar
   100    82    80   ar
   101    83    81   ar
   102    73    74    2
   103    73    72    1
   104    80    79   ar
   105    80    78   ar
   106    79    77   ar
   107    81    78   ar
   108    78    76   ar
   109    72    71    1
   110    72    75    1
   111    77    76   ar
   112    70    69    2
   113    76    75    1
   114    71    69   am
   115    69    68    1
   116    68    67    1
