@<TRIPOS>MOLECULE
tmp/2rkmA01.pdb
 165 160 0 0 0
SMALL
GASTEIGER

@<TRIPOS>ATOM
      1  N          8.8510   24.1950   12.3780 N.3    32  GLU32      -0.1182
      2  CA         8.6590   23.2050   13.4400 C.3    32  GLU32       0.1915
      3  C          7.2970   22.5290   13.4260 C.2    32  GLU32       0.2635
      4  O          7.1380   21.5470   14.1730 O.2    32  GLU32      -0.2714
      5  CB         8.8760   23.8880   14.7980 C.2    32  GLU32       0.0085
      6  CG         9.2530   22.9900   15.9570 C.2    32  GLU32       0.0835
      7  CD         9.3910   23.6800   17.2920 C.2    32  GLU32       0.3877
      8  OE1        8.9300   24.8220   17.4680 O.co2  32  GLU32      -0.2406
      9  OE2        9.9890   23.0940   18.2300 O.co2  32  GLU32      -0.2406
     10  N          6.3300   22.9900   12.6240 N.am   33  GLY33      -0.1939
     11  CA         4.9960   22.3860   12.7150 C.3    33  GLY33       0.2014
     12  C          4.4810   21.5520   11.5670 C.2    33  GLY33       0.2638
     13  O          5.0720   21.4040   10.4970 O.2    33  GLY33      -0.2714
     14  N          3.2630   21.0240   11.7580 N.am   34  VAL34      -0.1977
     15  CA         2.5620   20.2110   10.7710 C.3    34  VAL34       0.1596
     16  C          2.2790   20.9160    9.4640 C.2    34  VAL34       0.2287
     17  O          2.5770   20.4070    8.3650 O.2    34  VAL34      -0.2864
     18  CB         1.2900   19.5840   11.3920 C.3    34  VAL34       0.0276
     19  CG1        0.4630   18.8540   10.3420 C.3    34  VAL34       0.0022
     20  CG2        1.7010   18.5960   12.4870 C.3    34  VAL34       0.0022
     21  N         14.6920   23.1290   15.3040 N.3   109  TYR109     -0.1241
     22  CA        15.0520   21.7290   15.2080 C.3   109  TYR109      0.1605
     23  C         16.5620   21.5040   15.2190 C.2   109  TYR109      0.2264
     24  O         17.0600   20.4290   14.8600 O.2   109  TYR109     -0.2867
     25  CB        14.4150   21.0930   13.9670 C.3   109  TYR109      0.0534
     26  CG        13.1270   20.3350   14.2490 C.ar  109  TYR109     -0.0201
     27  CD1       13.1450   19.0880   14.8490 C.ar  109  TYR109     -0.0009
     28  CD2       11.8890   20.8730   13.9160 C.ar  109  TYR109     -0.0009
     29  CE1       11.9790   18.3870   15.1000 C.ar  109  TYR109      0.0417
     30  CE2       10.7120   20.1870   14.1720 C.ar  109  TYR109      0.0417
     31  CZ        10.7600   18.9460   14.7600 C.ar  109  TYR109      0.1957
     32  OH         9.6020   18.2320   15.0010 O.3   109  TYR109     -0.2866
     33  N         -2.2520   18.0710   24.5960 N.3   274  TYR274     -0.1241
     34  CA        -2.0460   18.3120   26.0260 C.3   274  TYR274      0.1605
     35  C         -2.0510   19.7940   26.3490 C.2   274  TYR274      0.2264
     36  O         -2.0230   20.6080   25.4200 O.2   274  TYR274     -0.2867
     37  CB        -0.6950   17.7270   26.4510 C.3   274  TYR274      0.0534
     38  CG         0.5660   18.1970   25.7730 C.ar  274  TYR274     -0.0201
     39  CD1        0.8910   17.8020   24.4790 C.ar  274  TYR274     -0.0009
     40  CD2        1.4810   18.9990   26.4550 C.ar  274  TYR274     -0.0009
     41  CE1        2.0740   18.2170   23.8720 C.ar  274  TYR274      0.0417
     42  CE2        2.6620   19.4150   25.8560 C.ar  274  TYR274      0.0417
     43  CZ         2.9490   19.0140   24.5680 C.ar  274  TYR274      0.1957
     44  OH         4.1400   19.4170   23.9760 O.3   274  TYR274     -0.2866
     45  N          0.2760   22.4550   27.8950 N.3   276  GLU276     -0.1245
     46  CA         1.6700   22.7460   28.2170 C.3   276  GLU276      0.1567
     47  C          1.7660   23.7860   29.3290 C.2   276  GLU276      0.2260
     48  O          1.2630   24.9050   29.1930 O.2   276  GLU276     -0.2867
     49  CB         2.3480   23.2690   26.9470 C.3   276  GLU276      0.0388
     50  CG         3.8100   23.6960   27.1090 C.3   276  GLU276      0.1160
     51  CD         4.3610   24.0980   25.7510 C.2   276  GLU276      0.3649
     52  OE1        4.1750   25.2610   25.3500 O.co2 276  GLU276     -0.2457
     53  OE2        4.9670   23.2230   25.0940 O.co2 276  GLU276     -0.2457
     54  N          2.7800   11.3340   27.8140 N.3   317  TYR317     -0.1241
     55  CA         3.1650   12.1870   26.6830 C.3   317  TYR317      0.1605
     56  C          3.3170   11.3290   25.4300 C.2   317  TYR317      0.2264
     57  O          2.6270   11.5030   24.4190 O.2   317  TYR317     -0.2867
     58  CB         4.4410   12.9450   27.0170 C.3   317  TYR317      0.0534
     59  CG         4.9820   13.9490   26.0340 C.ar  317  TYR317     -0.0201
     60  CD1        4.1640   14.8430   25.3640 C.ar  317  TYR317     -0.0009
     61  CD2        6.3540   14.0000   25.7720 C.ar  317  TYR317     -0.0009
     62  CE1        4.6820   15.7690   24.4760 C.ar  317  TYR317      0.0417
     63  CE2        6.8790   14.9220   24.8840 C.ar  317  TYR317      0.0417
     64  CZ         6.0380   15.8030   24.2360 C.ar  317  TYR317      0.1957
     65  OH         6.5360   16.7330   23.3440 O.3   317  TYR317     -0.2866
     66  N         -0.9340   31.2360   14.3800 N.3   397  TRP397     -0.1241
     67  CA         0.0010   30.1210   14.4540 C.3   397  TRP397      0.1605
     68  C          1.4580   30.5120   14.6100 C.2   397  TRP397      0.2264
     69  O          2.0930   30.0440   15.5640 O.2   397  TRP397     -0.2867
     70  CB        -0.1610   29.1890   13.2440 C.3   397  TRP397      0.0550
     71  CG         0.7200   27.9830   13.2090 C.ar  397  TRP397      0.0003
     72  CD1        1.6920   27.7270   12.2730 C.ar  397  TRP397      0.0946
     73  CD2        0.7250   26.8620   14.1030 C.ar  397  TRP397      0.0152
     74  NE1        2.3000   26.5230   12.5430 N.ar  397  TRP397     -0.2442
     75  CE2        1.7220   25.9700   13.6570 C.ar  397  TRP397      0.0810
     76  CE3       -0.0170   26.5280   15.2410 C.ar  397  TRP397      0.0012
     77  CZ2        1.9970   24.7670   14.3040 C.ar  397  TRP397      0.0191
     78  CZ3        0.2640   25.3300   15.8810 C.ar  397  TRP397      0.0001
     79  CH2        1.2600   24.4610   15.4150 C.ar  397  TRP397      0.0015
     80  N          3.7180   29.9640   18.2900 N.3   401  LEU401     -0.1245
     81  CA         4.9330   29.1640   18.4840 C.3   401  LEU401      0.1561
     82  C          6.0370   30.0340   19.0770 C.2   401  LEU401      0.2260
     83  O          6.7370   29.5690   19.9830 O.2   401  LEU401     -0.2867
     84  CB         5.3620   28.4840   17.1850 C.3   401  LEU401      0.0270
     85  CG         4.3750   27.4700   16.5990 C.3   401  LEU401      0.0019
     86  CD1        4.9610   26.7580   15.3850 C.3   401  LEU401      0.0001
     87  CD2        3.9150   26.4330   17.6230 C.3   401  LEU401      0.0001
     88  N          5.5030   30.5510   22.8640 N.3   404  ARG404     -0.1231
     89  CA         5.8550   29.3610   23.6350 C.3   404  ARG404      0.1694
     90  C          7.3650   29.2150   23.7800 C.2   404  ARG404      0.2592
     91  O          7.8240   28.8780   24.8750 O.2   404  ARG404     -0.2718
     92  CB         5.2150   28.1150   23.0160 C.3   404  ARG404      0.0321
     93  CG         3.6920   28.1100   23.2150 C.3   404  ARG404      0.0489
     94  CD         3.0240   27.0670   22.3270 C.3   404  ARG404      0.2205
     95  NE         3.4230   25.7120   22.6940 N.pl3 404  ARG404     -0.0865
     96  CZ         3.2610   24.6240   21.9600 C.cat 404  ARG404      0.5346
     97  NH1        2.6870   24.6840   20.7550 N.pl3 404  ARG404      0.1354
     98  NH2        3.6990   23.4590   22.4350 N.pl3 404  ARG404      0.1354
     99  N          8.1430   29.5190   22.7430 N.am  405  HIS405     -0.1976
    100  CA         9.5990   29.4380   22.8520 C.3   405  HIS405      0.1656
    101  C         10.1470   30.5080   23.7860 C.2   405  HIS405      0.2291
    102  O         11.0720   30.2750   24.5750 O.2   405  HIS405     -0.2864
    103  CB        10.2480   29.5580   21.4640 C.3   405  HIS405      0.0771
    104  CG        10.2520   28.2260   20.7670 C.ar  405  HIS405      0.0820
    105  ND1       11.1180   27.2100   21.1230 N.ar  405  HIS405     -0.2267
    106  CD2        9.4820   27.7390   19.7680 C.ar  405  HIS405      0.1154
    107  CE1       10.8820   26.1540   20.3630 C.ar  405  HIS405      0.1986
    108  NE2        9.8990   26.4460   19.5310 N.ar  405  HIS405     -0.2212
    109  N         -2.3330   25.5800   24.9800 N.3   413  ARG413     -0.1245
    110  CA        -2.8060   24.4150   24.2330 C.3   413  ARG413      0.1563
    111  C         -1.5680   23.8580   23.5200 C.2   413  ARG413      0.2260
    112  O         -0.7030   24.6420   23.1190 O.2   413  ARG413     -0.2867
    113  CB        -3.8430   24.8160   23.1860 C.3   413  ARG413      0.0307
    114  CG        -4.2460   23.7360   22.1940 C.3   413  ARG413      0.0489
    115  CD        -3.4450   23.7940   20.9010 C.3   413  ARG413      0.2205
    116  NE        -3.2550   22.4620   20.3180 N.pl3 413  ARG413     -0.0865
    117  CZ        -2.6470   22.1980   19.1670 C.cat 413  ARG413      0.5346
    118  NH1       -2.1370   23.1560   18.4060 N.pl3 413  ARG413      0.1354
    119  NH2       -2.5520   20.9380   18.7530 N.pl3 413  ARG413      0.1354
    120  N          0.1990   20.3000   21.0170 N.3   415  GLY415     -0.1210
    121  CA         0.1630   18.9770   20.3960 C.3   415  GLY415      0.1956
    122  C          1.6100   18.6220   20.0250 C.2   415  GLY415      0.2612
    123  O          2.4260   19.5240   19.8000 O.2   415  GLY415     -0.2717
    124  N          1.9190   17.3370   19.9920 N.am  416  TRP416     -0.1962
    125  CA         3.2100   16.8850   19.4670 C.3   416  TRP416      0.1771
    126  C          2.9010   15.6510   18.6070 C.2   416  TRP416      0.2619
    127  O          2.2240   14.7730   19.1380 O.2   416  TRP416     -0.2715
    128  CB         4.2720   16.4980   20.4900 C.3   416  TRP416      0.0590
    129  CG         5.6020   16.1490   19.8650 C.ar  416  TRP416      0.0006
    130  CD1        6.1430   14.9000   19.7260 C.ar  416  TRP416      0.0946
    131  CD2        6.5490   17.0570   19.2890 C.ar  416  TRP416      0.0152
    132  NE1        7.3710   14.9790   19.1010 N.ar  416  TRP416     -0.2442
    133  CE2        7.6410   16.2920   18.8320 C.ar  416  TRP416      0.0810
    134  CE3        6.5780   18.4480   19.1310 C.ar  416  TRP416      0.0012
    135  CZ2        8.7580   16.8610   18.2180 C.ar  416  TRP416      0.0191
    136  CZ3        7.6860   19.0130   18.5220 C.ar  416  TRP416      0.0001
    137  CH2        8.7570   18.2250   18.0700 C.ar  416  TRP416      0.0015
    138  N          3.3610   15.6180   17.3620 N.am  417  CYS417     -0.1968
    139  CA         3.1880   14.4480   16.5120 C.3   417  CYS417      0.1712
    140  C          4.5880   13.8660   16.2180 C.2   417  CYS417      0.2296
    141  O          5.5270   14.6460   16.0050 O.2   417  CYS417     -0.2864
    142  CB         2.5270   14.7230   15.1710 C.3   417  CYS417      0.0983
    143  SG         0.8390   15.3630   15.2480 S.3   417  CYS417     -0.0798
    144  N         12.1740   15.6430   23.3250 N.3   429  THR429     -0.1218
    145  CA        11.6950   17.0060   23.3870 C.3   429  THR429      0.1862
    146  C         11.5330   17.5130   24.8200 C.2   429  THR429      0.2287
    147  O         11.3300   18.7260   24.9590 O.2   429  THR429     -0.2866
    148  CB        10.3610   17.2250   22.6360 C.3   429  THR429      0.1770
    149  OG1        9.3250   16.5130   23.3150 O.3   429  THR429     -0.2211
    150  CG2       10.4550   16.7730   21.1840 C.3   429  THR429      0.0375
    151  N         13.3520   21.9130   21.0720 N.3   436  ASN436     -0.1240
    152  CA        11.9080   21.7260   20.9700 C.3   436  ASN436      0.1653
    153  C         11.2020   21.8540   22.3210 C.2   436  ASN436      0.2266
    154  O          9.9650   21.7400   22.4030 O.2   436  ASN436     -0.2867
    155  CB        11.5870   20.3360   20.4130 C.3   436  ASN436      0.1155
    156  CG        12.0660   20.0700   19.0060 C.2   436  ASN436      0.2627
    157  OD1       12.8600   19.1530   18.7620 O.2   436  ASN436     -0.2716
    158  ND2       11.5820   20.8260   18.0210 N.am  436  ASN436     -0.0877
    159  N          9.3430   23.4480   24.7730 N.3   438  THR438     -0.1218
    160  CA         8.5780   24.6550   25.0820 C.3   438  THR438      0.1862
    161  C          7.8670   24.5460   26.4250 C.2   438  THR438      0.2287
    162  O          7.1500   25.4590   26.8490 O.2   438  THR438     -0.2866
    163  CB         7.5790   24.9750   23.9570 C.3   438  THR438      0.1770
    164  OG1        6.9330   23.7630   23.5370 O.3   438  THR438     -0.2211
    165  CG2        8.3000   25.5730   22.7520 C.3   438  THR438      0.0375
@<TRIPOS>BOND
     1    17    16    2
     2    16    15    1
     3    19    18    1
     4    13    12    2
     5    15    18    1
     6    15    14    1
     7    18    20    1
     8    12    14   am
     9    12    11    1
    10    72    74   ar
    11    72    71   ar
    12     1     2    1
    13    74    75   ar
    14    10    11    1
    15    10     3   am
    16    71    70    1
    17    71    73   ar
    18    70    67    1
    19     3     2    1
    20     3     4    2
    21     2     5    1
    22    75    73   ar
    23    75    77   ar
    24    28    30   ar
    25    28    26   ar
    26    25    26    1
    27    25    22    1
    28    73    76   ar
    29    30    31   ar
    30    26    27   ar
    31    77    79   ar
    32    66    67    1
    33    67    68    1
    34    68    69    2
    35    31    32    1
    36    31    29   ar
    37     5     6    2
    38    27    29   ar
    39    24    23    2
    40   142   143    1
    41   142   139    1
    42    22    23    1
    43    22    21    1
    44    76    78   ar
    45    86    85    1
    46    79    78   ar
    47     6     7    1
    48   141   140    2
    49   140   139    1
    50   139   138    1
    51    85    84    1
    52    85    87    1
    53    84    81    1
    54     7     8   ar
    55     7     9   ar
    56   138   126   am
    57   158   156   am
    58   137   135   ar
    59   137   136   ar
    60   135   133   ar
    61    80    81    1
    62   118   117    1
    63    81    82    1
    64   136   134   ar
    65   126   127    2
    66   126   125    1
    67   119   117    1
    68   157   156    2
    69   133   132   ar
    70   133   131   ar
    71   156   155    1
    72    82    83    2
    73   132   130   ar
    74   134   131   ar
    75   117   116    2
    76   131   129   ar
    77   125   124    1
    78   125   128    1
    79   108   106   ar
    80   108   107   ar
    81   130   129   ar
    82   106   104   ar
    83   123   122    2
    84   129   128    1
    85   124   122   am
    86   122   121    1
    87   116   115    1
    88   107   105   ar
    89   121   120    1
    90   155   152    1
    91    97    96    1
    92   104   105   ar
    93   104   103    1
    94   115   114    1
    95   152   151    1
    96   152   153    1
    97   150   148    1
    98   103   100    1
    99    96    98    1
   100    96    95    2
   101   114   113    1
   102   153   154    2
   103    94    95    1
   104    94    93    1
   105   148   149    1
   106   148   145    1
   107    99   100    1
   108    99    90   am
   109   165   163    1
   110   100   101    1
   111    88    89    1
   112    92    93    1
   113    92    89    1
   114   112   111    2
   115   113   110    1
   116   144   145    1
   117    65    64    1
   118   145   146    1
   119   111   110    1
   120   164   163    1
   121    89    90    1
   122    90    91    2
   123   101   102    2
   124    41    39   ar
   125    41    43   ar
   126   163   160    1
   127    44    43    1
   128   110   109    1
   129    64    62   ar
   130    64    63   ar
   131    57    56    2
   132    62    60   ar
   133    39    38   ar
   134    43    42   ar
   135    33    34    1
   136   159   160    1
   137   146   147    2
   138    63    61   ar
   139   160   161    1
   140    53    51   ar
   141    52    51   ar
   142    60    59   ar
   143    36    35    2
   144    56    55    1
   145    51    50    1
   146    61    59   ar
   147    38    37    1
   148    38    40   ar
   149    42    40   ar
   150    34    35    1
   151    34    37    1
   152    59    58    1
   153   161   162    2
   154    55    58    1
   155    55    54    1
   156    49    50    1
   157    49    46    1
   158    45    46    1
   159    46    47    1
   160    48    47    2
