@<TRIPOS>MOLECULE
tmp/2rknA00.pdb
 153 143 0 0 0
SMALL
GASTEIGER

@<TRIPOS>ATOM
      1  N         11.2690   12.2960    4.1200 N.3     7  MET7       -0.1245
      2  CA        10.2840   11.5760    4.9210 C.3     7  MET7        0.1570
      3  C          9.5950   12.5180    5.8850 C.2     7  MET7        0.2261
      4  O         10.2160   13.4240    6.4720 O.2     7  MET7       -0.2867
      5  CB        10.9390   10.4360    5.6830 C.3     7  MET7        0.0387
      6  CG        11.7150    9.4760    4.7670 C.3     7  MET7        0.0595
      7  SD        12.4280    8.1250    5.7290 S.3     7  MET7       -0.1393
      8  CE        10.8870    7.4640    6.4340 C.3     7  MET7        0.0692
      9  N          7.3310   13.3130    9.4030 N.3     9  GLN9       -0.1245
     10  CA         7.3820   12.7590   10.7600 C.3     9  GLN9        0.1566
     11  C          6.5690   11.4940   10.8550 C.2     9  GLN9        0.2260
     12  O          7.0090   10.5010   11.4690 O.2     9  GLN9       -0.2867
     13  CB         6.8760   13.7660   11.8040 C.3     9  GLN9        0.0367
     14  CG         7.7510   14.9520   11.9350 C.3     9  GLN9        0.0905
     15  CD         7.1330   16.0110   12.8320 C.2     9  GLN9        0.2608
     16  OE1        7.1220   15.8560   14.0470 O.2     9  GLN9       -0.2717
     17  NE2        6.6010   17.0740   12.2370 N.am    9  GLN9       -0.0878
     18  N          8.6080    8.6690    9.2780 N.3    12  LEU12      -0.1231
     19  CA         9.7020    8.1940   10.1610 C.3    12  LEU12       0.1693
     20  C          9.1080    7.3510   11.2760 C.2    12  LEU12       0.2592
     21  O          9.6510    6.2910   11.6160 O.2    12  LEU12      -0.2718
     22  CB        10.3750    9.4390   10.7700 C.3    12  LEU12       0.0284
     23  CG        11.2160   10.2160    9.7220 C.3    12  LEU12       0.0019
     24  CD1       11.6910   11.5390   10.4340 C.3    12  LEU12       0.0001
     25  CD2       12.3610    9.4750    9.2280 C.3    12  LEU12       0.0001
     26  N          8.0110    7.8080   11.9030 N.am   13  ASN13      -0.1974
     27  CA         7.3460    6.9720   12.9850 C.3    13  ASN13       0.1688
     28  C          6.8640    5.6130   12.4460 C.2    13  ASN13       0.2292
     29  O          6.9280    4.5570   13.1590 O.2    13  ASN13      -0.2864
     30  CB         6.1790    7.7610   13.5350 C.3    13  ASN13       0.1181
     31  CG         6.5730    8.5570   14.6900 C.2    13  ASN13       0.2629
     32  OD1        7.2800    8.0450   15.5880 O.2    13  ASN13      -0.2716
     33  ND2        6.0150    9.7670   14.7900 N.am   13  ASN13      -0.0877
     34  N          8.3260    3.8810   10.1540 N.3    15  CYS15      -0.1221
     35  CA         9.5310    3.0660   10.0720 C.3    15  CYS15       0.1808
     36  C         10.2590    2.7510   11.3930 C.2    15  CYS15       0.2601
     37  O         11.0040    1.7470   11.4620 O.2    15  CYS15      -0.2717
     38  CB        10.5580    3.6690    9.1090 C.3    15  CYS15       0.0970
     39  SG        10.0180    3.6630    7.3350 S.3    15  CYS15      -0.0800
     40  N         10.0220    3.5950   12.4040 N.am   16  LYS16      -0.1979
     41  CA        10.6530    3.4580   13.7080 C.3    16  LYS16       0.1596
     42  C         10.7200    2.0180   14.2860 C.2    16  LYS16       0.2287
     43  O         11.7550    1.5860   14.8720 O.2    16  LYS16      -0.2864
     44  CB         9.9650    4.4660   14.6800 C.3    16  LYS16       0.0298
     45  CG        10.6630    4.5850   16.0250 C.3    16  LYS16       0.0038
     46  CD        10.0140    5.6440   16.8980 C.3    16  LYS16       0.0206
     47  CE        10.2310    5.3570   18.3860 C.3    16  LYS16       0.1093
     48  NZ         9.1630    6.0240   19.1590 N.3    16  LYS16      -0.1314
     49  N         13.4470   -0.2260   12.9190 N.3    19  VAL19      -0.1245
     50  CA        14.8430    0.0820   13.1580 C.3    19  VAL19       0.1561
     51  C         15.1870    0.1530   14.6450 C.2    19  VAL19       0.2260
     52  O         16.2690    0.6590   14.9910 O.2    19  VAL19      -0.2867
     53  CB        15.2730    1.3640   12.3820 C.3    19  VAL19       0.0252
     54  CG1       15.0580    1.1240   10.8870 C.3    19  VAL19       0.0019
     55  CG2       14.4860    2.6300   12.8640 C.3    19  VAL19       0.0019
     56  N          9.9160    4.9040    1.9320 N.3    35  LEU35      -0.1245
     57  CA        11.3500    4.8860    1.6440 C.3    35  LEU35       0.1561
     58  C         11.6480    4.9720    0.1270 C.2    35  LEU35       0.2260
     59  O         12.7690    5.3700   -0.2620 O.2    35  LEU35      -0.2867
     60  CB        11.9890    3.5490    2.1590 C.3    35  LEU35       0.0270
     61  CG        12.2260    3.6100    3.6490 C.3    35  LEU35       0.0019
     62  CD1       12.9780    2.2690    3.9620 C.3    35  LEU35       0.0001
     63  CD2       13.0500    4.7700    4.1500 C.3    35  LEU35       0.0001
     64  N         18.6020    8.5280    0.5850 N.3    40  PHE40      -0.1241
     65  CA        19.4390    7.7330    1.4890 C.3    40  PHE40       0.1605
     66  C         20.6990    8.3920    1.9050 C.2    40  PHE40       0.2264
     67  O         21.0810    8.2350    3.0790 O.2    40  PHE40      -0.2867
     68  CB        19.7670    6.3350    0.9730 C.3    40  PHE40       0.0534
     69  CG        18.5730    5.4820    0.6970 C.ar   40  PHE40      -0.0203
     70  CD1       17.3970    5.6520    1.3960 C.ar   40  PHE40      -0.0042
     71  CD2       18.6610    4.4500   -0.1990 C.ar   40  PHE40      -0.0042
     72  CE1       16.2820    4.8350    1.1560 C.ar   40  PHE40      -0.0003
     73  CE2       17.5320    3.6120   -0.4170 C.ar   40  PHE40      -0.0003
     74  CZ        16.3490    3.8520    0.2870 C.ar   40  PHE40      -0.0000
     75  N         19.9300   10.6200    4.6160 N.3    43  LEU43      -0.1231
     76  CA        19.6730    9.8700    5.8640 C.3    43  LEU43       0.1693
     77  C         20.9690    9.4000    6.5230 C.2    43  LEU43       0.2592
     78  O         21.1140    9.4840    7.7760 O.2    43  LEU43      -0.2718
     79  CB        18.7030    8.6870    5.6590 C.3    43  LEU43       0.0284
     80  CG        17.2400    9.0670    5.4350 C.3    43  LEU43       0.0019
     81  CD1       16.3810    7.9420    4.8070 C.3    43  LEU43       0.0001
     82  CD2       16.5610    9.5940    6.7720 C.3    43  LEU43       0.0001
     83  N         21.9100    8.9280    5.7150 N.am   44  CYS44      -0.1970
     84  CA        23.2420    8.5700    6.2080 C.3    44  CYS44       0.1712
     85  C         23.9430    9.6800    6.9810 C.2    44  CYS44       0.2296
     86  O         24.7630    9.3960    7.8390 O.2    44  CYS44      -0.2864
     87  CB        24.1510    8.1110    5.0570 C.3    44  CYS44       0.0983
     88  SG        23.6820    6.4560    4.5340 S.3    44  CYS44      -0.0798
     89  N         19.5720    9.1530   17.3390 N.3    52  LEU52      -0.1245
     90  CA        19.4610    7.6960   17.2570 C.3    52  LEU52       0.1561
     91  C         19.3450    7.1920   18.6750 C.2    52  LEU52       0.2260
     92  O         18.4890    6.3480   19.0200 O.2    52  LEU52      -0.2867
     93  CB        20.6660    7.0980   16.5010 C.3    52  LEU52       0.0270
     94  CG        20.7480    7.5370   15.0310 C.3    52  LEU52       0.0019
     95  CD1       21.4510    6.4810   14.1870 C.3    52  LEU52       0.0001
     96  CD2       19.3660    7.7600   14.4530 C.3    52  LEU52       0.0001
     97  N         15.8100    8.0650   20.2580 N.3    55  PHE55      -0.1241
     98  CA        14.6510    7.3610   19.7380 C.3    55  PHE55       0.1605
     99  C         14.8310    5.8510   19.7430 C.2    55  PHE55       0.2264
    100  O         13.9630    5.1650   19.2110 O.2    55  PHE55      -0.2867
    101  CB        14.2330    7.9140   18.3560 C.3    55  PHE55       0.0534
    102  CG        13.5970    9.2570   18.4300 C.ar   55  PHE55      -0.0203
    103  CD1       14.3070   10.3960   18.0390 C.ar   55  PHE55      -0.0042
    104  CD2       12.2700    9.3890   18.8560 C.ar   55  PHE55      -0.0042
    105  CE1       13.6950   11.6680   18.1170 C.ar   55  PHE55      -0.0003
    106  CE2       11.6550   10.6190   18.9280 C.ar   55  PHE55      -0.0003
    107  CZ        12.3750   11.7760   18.5920 C.ar   55  PHE55      -0.0000
    108  N         17.0320    4.0770   18.0190 N.3    57  VAL57      -0.1245
    109  CA        17.3250    3.5430   16.6580 C.3    57  VAL57       0.1561
    110  C         18.6480    2.8070   16.5110 C.2    57  VAL57       0.2260
    111  O         19.6950    3.3180   16.9390 O.2    57  VAL57      -0.2867
    112  CB        17.3430    4.7340   15.6670 C.3    57  VAL57       0.0252
    113  CG1       17.5920    4.1710   14.2590 C.3    57  VAL57       0.0019
    114  CG2       16.0290    5.3920   15.7520 C.3    57  VAL57       0.0019
    115  N         18.9640    0.2410   10.5740 N.3    62  ALA62      -0.1231
    116  CA        18.5170    1.3460    9.7260 C.3    62  ALA62       0.1694
    117  C         19.1950    1.1850    8.3670 C.2    62  ALA62       0.2592
    118  O         18.5280    1.2570    7.3230 O.2    62  ALA62      -0.2718
    119  CB        18.8550    2.6760   10.3860 C.3    62  ALA62       0.0304
    120  N         20.5100    0.8930    8.4020 N.am   63  SER63      -0.1952
    121  CA        21.3020    0.6780    7.1860 C.3    63  SER63       0.1924
    122  C         20.6730   -0.4330    6.3390 C.2    63  SER63       0.2314
    123  O         20.6720   -0.3870    5.1200 O.2    63  SER63      -0.2863
    124  CB        22.7420    0.3150    7.5690 C.3    63  SER63       0.2116
    125  OG        23.5060   -0.1200    6.4580 O.3    63  SER63      -0.2180
    126  N         17.4910   -1.4200    6.1400 N.3    65  LEU65      -0.1231
    127  CA        16.0550   -1.3600    5.8980 C.3    65  LEU65       0.1678
    128  C         15.6870   -1.3070    4.4100 C.2    65  LEU65       0.2434
    129  O         14.8480   -2.0850    3.9450 O.2    65  LEU65      -0.2733
    130  CB        15.4320   -0.2280    6.7030 C.3    65  LEU65       0.0284
    131  CG        13.9130   -0.1390    6.6190 C.3    65  LEU65       0.0019
    132  CD1       13.2520   -1.4240    6.9310 C.3    65  LEU65       0.0001
    133  CD2       13.4060    0.9350    7.5370 C.3    65  LEU65       0.0001
    134  N         16.3580   -0.4340    3.6350 N.am   66  PRO66      -0.2729
    135  CA        16.0450   -0.5390    2.1900 C.3    66  PRO66       0.1401
    136  C         16.0890   -1.9270    1.5990 C.2    66  PRO66       0.2269
    137  O         15.1210   -2.3050    0.8780 O.2    66  PRO66      -0.2865
    138  CB        17.0510    0.4720    1.5320 C.3    66  PRO66       0.0296
    139  CG        17.2830    1.4900    2.6210 C.3    66  PRO66       0.0237
    140  CD        17.3810    0.5960    3.8980 C.3    66  PRO66       0.0939
    141  N         21.7080    1.9840    1.3400 N.3    75  PRO75      -0.2116
    142  CA        22.4160    3.1190    1.9390 C.3    75  PRO75       0.1372
    143  C         23.8970    2.8700    2.2400 C.2    75  PRO75       0.2244
    144  O         24.2390    2.0370    3.1010 O.2    75  PRO75      -0.2868
    145  CB        21.6770    3.3270    3.2490 C.3    75  PRO75       0.0268
    146  CG        21.2360    2.0080    3.6270 C.3    75  PRO75       0.0207
    147  CD        20.8800    1.2870    2.3320 C.3    75  PRO75       0.0892
    148  N         26.0020    3.6060    4.0960 N.3    77  CYS77      -0.1235
    149  CA        26.5080    3.8530    5.4300 C.3    77  CYS77       0.1677
    150  C         26.2030    2.6870    6.3410 C.2    77  CYS77       0.2270
    151  O         25.3430    1.8620    6.0060 O.2    77  CYS77      -0.2867
    152  CB        25.9600    5.1700    5.9960 C.3    77  CYS77       0.0956
    153  SG        24.1920    5.2600    6.1550 S.3    77  CYS77      -0.0801
@<TRIPOS>BOND
     1    73    71   ar
     2    73    74   ar
     3    59    58    2
     4    71    69   ar
     5    58    57    1
     6    74    72   ar
     7    64    65    1
     8    69    68    1
     9    69    70   ar
    10   137   136    2
    11    68    65    1
    12    72    70   ar
    13   141   142    1
    14   141   147    1
    15    65    66    1
    16   138   135    1
    17   138   139    1
    18   136   135    1
    19    57    56    1
    20    57    60    1
    21    66    67    2
    22   142   143    1
    23   142   145    1
    24    60    61    1
    25   135   134    1
    26   143   144    2
    27   147   146    1
    28   139   140    1
    29   145   146    1
    30   134   140    1
    31   134   128   am
    32    61    62    1
    33    61    63    1
    34   129   128    2
    35   148   149    1
    36     1     2    1
    37   128   127    1
    38    88    87    1
    39    88   153    1
    40    75    76    1
    41     6     5    1
    42     6     7    1
    43    81    80    1
    44     2     5    1
    45     2     3    1
    46    87    84    1
    47   123   122    2
    48   149   152    1
    49   149   150    1
    50    80    79    1
    51    80    82    1
    52    79    76    1
    53    83    84    1
    54    83    77   am
    55     7     8    1
    56    76    77    1
    57     3     4    2
    58   127   126    1
    59   127   130    1
    60   152   153    1
    61   151   150    2
    62    84    85    1
    63   122   121    1
    64   125   124    1
    65    77    78    2
    66   131   130    1
    67   131   132    1
    68   131   133    1
    69    85    86    2
    70   121   124    1
    71   121   120    1
    72   118   117    2
    73    39    38    1
    74   117   120   am
    75   117   116    1
    76    38    35    1
    77    25    23    1
    78    18    19    1
    79     9    10    1
    80    23    24    1
    81    23    22    1
    82   116   119    1
    83   116   115    1
    84    35    34    1
    85    35    36    1
    86    19    22    1
    87    19    20    1
    88    10    11    1
    89    10    13    1
    90    11    12    2
    91    54    53    1
    92    20    21    2
    93    20    26   am
    94    36    37    2
    95    36    40   am
    96    13    14    1
    97    26    27    1
    98    14    15    1
    99    17    15   am
   100    53    55    1
   101    53    50    1
   102    40    41    1
   103    28    27    1
   104    28    29    2
   105    15    16    2
   106    49    50    1
   107    27    30    1
   108    50    51    1
   109    30    31    1
   110    41    42    1
   111    41    44    1
   112    95    94    1
   113   113   112    1
   114    42    43    2
   115    96    94    1
   116    51    52    2
   117    44    45    1
   118    31    33   am
   119    31    32    2
   120    94    93    1
   121   112   114    1
   122   112   109    1
   123    45    46    1
   124    93    90    1
   125   110   109    1
   126   110   111    2
   127   109   108    1
   128    46    47    1
   129    90    89    1
   130    90    91    1
   131   103   105   ar
   132   103   102   ar
   133   105   107   ar
   134   101   102    1
   135   101    98    1
   136    47    48    1
   137   102   104   ar
   138   107   106   ar
   139    91    92    2
   140   104   106   ar
   141   100    99    2
   142    98    99    1
   143    98    97    1
