@<TRIPOS>MOLECULE
tmp/2rknA01.pdb
 153 147 0 0 0
SMALL
GASTEIGER

@<TRIPOS>ATOM
      1  N          4.9540   20.1150   10.8970 N.3     1  ALA1       -0.1231
      2  CA         5.3090   19.1730    9.7900 C.3     1  ALA1        0.1694
      3  C          6.6690   19.4460    9.1610 C.2     1  ALA1        0.2591
      4  O          6.9800   20.5560    8.7790 O.2     1  ALA1       -0.2718
      5  CB         4.2220   19.1480    8.7250 C.3     1  ALA1        0.0304
      6  N          7.4790   18.3970    9.0430 N.am    2  ILE2       -0.1980
      7  CA         8.8070   18.5490    8.5620 C.3     2  ILE2        0.1595
      8  C          9.0660   17.6130    7.3880 C.2     2  ILE2        0.2287
      9  O          8.2520   16.6970    7.1090 O.2     2  ILE2       -0.2864
     10  CB         9.8140   18.2020    9.6560 C.3     2  ILE2        0.0276
     11  CG1        9.7750   16.6950    9.9290 C.3     2  ILE2        0.0022
     12  CG2        9.5520   19.0990   10.8900 C.3     2  ILE2        0.0022
     13  CD1       10.9400   16.1400   10.7610 C.3     2  ILE2        0.0001
     14  N         12.3560   15.3360    6.4250 N.3     4  LEU4       -0.1245
     15  CA        13.7090   15.0320    6.7120 C.3     4  LEU4        0.1561
     16  C         14.1210   13.9530    5.7410 C.2     4  LEU4        0.2260
     17  O         13.6530   12.8350    5.7560 O.2     4  LEU4       -0.2867
     18  CB        13.8840   14.6490    8.1530 C.3     4  LEU4        0.0270
     19  CG        15.2580   14.3470    8.7510 C.3     4  LEU4        0.0019
     20  CD1       16.3420   15.1760    8.2440 C.3     4  LEU4        0.0001
     21  CD2       15.1630   14.6370   10.1430 C.3     4  LEU4        0.0001
     22  N          7.3310   13.3130    9.4030 N.3     9  GLN9       -0.1245
     23  CA         7.3820   12.7590   10.7600 C.3     9  GLN9        0.1566
     24  C          6.5690   11.4940   10.8550 C.2     9  GLN9        0.2260
     25  O          7.0090   10.5010   11.4690 O.2     9  GLN9       -0.2867
     26  CB         6.8760   13.7660   11.8040 C.3     9  GLN9        0.0367
     27  CG         7.7510   14.9520   11.9350 C.3     9  GLN9        0.0905
     28  CD         7.1330   16.0110   12.8320 C.2     9  GLN9        0.2608
     29  OE1        7.1220   15.8560   14.0470 O.2     9  GLN9       -0.2717
     30  NE2        6.6010   17.0740   12.2370 N.am    9  GLN9       -0.0878
     31  N          8.6080    8.6690    9.2780 N.3    12  LEU12      -0.1245
     32  CA         9.7020    8.1940   10.1610 C.3    12  LEU12       0.1561
     33  C          9.1080    7.3510   11.2760 C.2    12  LEU12       0.2260
     34  O          9.6510    6.2910   11.6160 O.2    12  LEU12      -0.2867
     35  CB        10.3750    9.4390   10.7700 C.3    12  LEU12       0.0270
     36  CG        11.2160   10.2160    9.7220 C.3    12  LEU12       0.0019
     37  CD1       11.6910   11.5390   10.4340 C.3    12  LEU12       0.0001
     38  CD2       12.3610    9.4750    9.2280 C.3    12  LEU12       0.0001
     39  N         19.9300   10.6200    4.6160 N.3    43  LEU43      -0.1231
     40  CA        19.6730    9.8700    5.8640 C.3    43  LEU43       0.1693
     41  C         20.9690    9.4000    6.5230 C.2    43  LEU43       0.2592
     42  O         21.1140    9.4840    7.7760 O.2    43  LEU43      -0.2718
     43  CB        18.7030    8.6870    5.6590 C.3    43  LEU43       0.0284
     44  CG        17.2400    9.0670    5.4350 C.3    43  LEU43       0.0019
     45  CD1       16.3810    7.9420    4.8070 C.3    43  LEU43       0.0001
     46  CD2       16.5610    9.5940    6.7720 C.3    43  LEU43       0.0001
     47  N         21.9100    8.9280    5.7150 N.am   44  CYS44      -0.1970
     48  CA        23.2420    8.5700    6.2080 C.3    44  CYS44       0.1712
     49  C         23.9430    9.6800    6.9810 C.2    44  CYS44       0.2296
     50  O         24.7630    9.3960    7.8390 O.2    44  CYS44      -0.2864
     51  CB        24.1510    8.1110    5.0570 C.3    44  CYS44       0.0983
     52  SG        23.6820    6.4560    4.5340 S.3    44  CYS44      -0.0798
     53  N         22.7550   11.3360    9.2010 N.3    46  TYR46      -0.1227
     54  CA        22.3010   11.3440   10.5740 C.3    46  TYR46       0.1736
     55  C         22.9220   10.1930   11.3450 C.2    46  TYR46       0.2595
     56  O         22.5710    9.9810   12.4980 O.2    46  TYR46      -0.2718
     57  CB        20.7550   11.1950   10.6550 C.3    46  TYR46       0.0548
     58  CG        20.0590   12.4700   10.2380 C.ar   46  TYR46      -0.0200
     59  CD1       19.8500   12.7770    8.9070 C.ar   46  TYR46      -0.0009
     60  CD2       19.7080   13.4360   11.2190 C.ar   46  TYR46      -0.0009
     61  CE1       19.2780   14.0390    8.5190 C.ar   46  TYR46       0.0417
     62  CE2       19.1290   14.6450   10.8620 C.ar   46  TYR46       0.0417
     63  CZ        18.9090   14.9590    9.5370 C.ar   46  TYR46       0.1957
     64  OH        18.3470   16.1610    9.1170 O.3    46  TYR46      -0.2866
     65  N         23.8240    9.4070   10.7270 N.am   47  LYS47      -0.1980
     66  CA        24.3810    8.2270   11.3850 C.3    47  LYS47       0.1596
     67  C         24.8990    8.4730   12.7980 C.2    47  LYS47       0.2287
     68  O         24.8290    7.5900   13.6490 O.2    47  LYS47      -0.2864
     69  CB        25.5260    7.6420   10.5530 C.3    47  LYS47       0.0298
     70  CG        26.3170    6.5720   11.3110 C.3    47  LYS47       0.0038
     71  CD        27.5010    6.0900   10.5310 C.3    47  LYS47       0.0206
     72  CE        28.0980    4.8780   11.2090 C.3    47  LYS47       0.1093
     73  NZ        27.0960    3.7780   11.2340 N.3    47  LYS47      -0.1314
     74  N         19.9730   11.8720   18.0200 N.3    51  TRP51      -0.1227
     75  CA        18.6140   11.3800   17.8950 C.3    51  TRP51       0.1737
     76  C         18.5520    9.8520   17.8460 C.2    51  TRP51       0.2595
     77  O         17.5760    9.3170   18.3060 O.2    51  TRP51      -0.2718
     78  CB        17.9360   11.9850   16.6830 C.3    51  TRP51       0.0564
     79  CG        17.3460   13.3080   16.8950 C.ar   51  TRP51       0.0003
     80  CD1       16.9560   13.8800   18.0740 C.ar   51  TRP51       0.0946
     81  CD2       16.9810   14.2140   15.8610 C.ar   51  TRP51       0.0152
     82  NE1       16.3470   15.1010   17.8210 N.ar   51  TRP51      -0.2442
     83  CE2       16.3810   15.3350   16.4790 C.ar   51  TRP51       0.0810
     84  CE3       17.1720   14.2240   14.4530 C.ar   51  TRP51       0.0012
     85  CZ2       15.9220   16.4070   15.7520 C.ar   51  TRP51       0.0191
     86  CZ3       16.6890   15.2750   13.7420 C.ar   51  TRP51       0.0001
     87  CH2       16.0890   16.3760   14.4020 C.ar   51  TRP51       0.0015
     88  N         19.5720    9.1530   17.3390 N.am   52  LEU52      -0.1980
     89  CA        19.4610    7.6960   17.2570 C.3    52  LEU52       0.1596
     90  C         19.3450    7.1920   18.6750 C.2    52  LEU52       0.2287
     91  O         18.4890    6.3480   19.0200 O.2    52  LEU52      -0.2864
     92  CB        20.6660    7.0980   16.5010 C.3    52  LEU52       0.0297
     93  CG        20.7480    7.5370   15.0310 C.3    52  LEU52       0.0022
     94  CD1       21.4510    6.4810   14.1870 C.3    52  LEU52       0.0001
     95  CD2       19.3660    7.7600   14.4530 C.3    52  LEU52       0.0001
     96  N         15.8100    8.0650   20.2580 N.3    55  PHE55      -0.1241
     97  CA        14.6510    7.3610   19.7380 C.3    55  PHE55       0.1605
     98  C         14.8310    5.8510   19.7430 C.2    55  PHE55       0.2264
     99  O         13.9630    5.1650   19.2110 O.2    55  PHE55      -0.2867
    100  CB        14.2330    7.9140   18.3560 C.3    55  PHE55       0.0534
    101  CG        13.5970    9.2570   18.4300 C.ar   55  PHE55      -0.0203
    102  CD1       14.3070   10.3960   18.0390 C.ar   55  PHE55      -0.0042
    103  CD2       12.2700    9.3890   18.8560 C.ar   55  PHE55      -0.0042
    104  CE1       13.6950   11.6680   18.1170 C.ar   55  PHE55      -0.0003
    105  CE2       11.6550   10.6190   18.9280 C.ar   55  PHE55      -0.0003
    106  CZ        12.3750   11.7760   18.5920 C.ar   55  PHE55      -0.0000
    107  N         17.0320    4.0770   18.0190 N.3    57  VAL57      -0.1245
    108  CA        17.3250    3.5430   16.6580 C.3    57  VAL57       0.1561
    109  C         18.6480    2.8070   16.5110 C.2    57  VAL57       0.2260
    110  O         19.6950    3.3180   16.9390 O.2    57  VAL57      -0.2867
    111  CB        17.3430    4.7340   15.6670 C.3    57  VAL57       0.0252
    112  CG1       17.5920    4.1710   14.2590 C.3    57  VAL57       0.0019
    113  CG2       16.0290    5.3920   15.7520 C.3    57  VAL57       0.0019
    114  N         21.6450    1.8390   14.3340 N.3    59  PRO59      -0.2102
    115  CA        22.1460    2.2530   13.0080 C.3    59  PRO59       0.1504
    116  C         22.3300    1.0780   12.0010 C.2    59  PRO59       0.2575
    117  O         22.0490    1.2760   10.8100 O.2    59  PRO59      -0.2718
    118  CB        23.4860    2.9600   13.3300 C.3    59  PRO59       0.0282
    119  CG        23.8620    2.5270   14.6360 C.3    59  PRO59       0.0208
    120  CD        22.6000    2.1600   15.4020 C.3    59  PRO59       0.0893
    121  N         22.6520   -0.1110   12.4790 N.am   60  GLU60      -0.1980
    122  CA        22.8190   -1.2680   11.5910 C.3    60  GLU60       0.1602
    123  C         21.4980   -1.6710   10.9380 C.2    60  GLU60       0.2287
    124  O         21.4310   -1.9030    9.7210 O.2    60  GLU60      -0.2864
    125  CB        23.4830   -2.4120   12.3210 C.3    60  GLU60       0.0415
    126  CG        24.9960   -2.2690   12.3460 C.3    60  GLU60       0.1163
    127  CD        25.6560   -3.4140   13.0930 C.2    60  GLU60       0.3649
    128  OE1       26.6210   -4.0280   12.5610 O.co2  60  GLU60      -0.2457
    129  OE2       25.1900   -3.7200   14.2150 O.co2  60  GLU60      -0.2457
    130  N         18.9640    0.2410   10.5740 N.3    62  ALA62      -0.1231
    131  CA        18.5170    1.3460    9.7260 C.3    62  ALA62       0.1694
    132  C         19.1950    1.1850    8.3670 C.2    62  ALA62       0.2592
    133  O         18.5280    1.2570    7.3230 O.2    62  ALA62      -0.2718
    134  CB        18.8550    2.6760   10.3860 C.3    62  ALA62       0.0304
    135  N         20.5100    0.8930    8.4020 N.am   63  SER63      -0.1952
    136  CA        21.3020    0.6780    7.1860 C.3    63  SER63       0.1924
    137  C         20.6730   -0.4330    6.3390 C.2    63  SER63       0.2314
    138  O         20.6720   -0.3870    5.1200 O.2    63  SER63      -0.2863
    139  CB        22.7420    0.3150    7.5690 C.3    63  SER63       0.2116
    140  OG        23.5060   -0.1200    6.4580 O.3    63  SER63      -0.2180
    141  N         21.7080    1.9840    1.3400 N.3    75  PRO75      -0.2116
    142  CA        22.4160    3.1190    1.9390 C.3    75  PRO75       0.1372
    143  C         23.8970    2.8700    2.2400 C.2    75  PRO75       0.2244
    144  O         24.2390    2.0370    3.1010 O.2    75  PRO75      -0.2868
    145  CB        21.6770    3.3270    3.2490 C.3    75  PRO75       0.0268
    146  CG        21.2360    2.0080    3.6270 C.3    75  PRO75       0.0207
    147  CD        20.8800    1.2870    2.3320 C.3    75  PRO75       0.0892
    148  N         26.0020    3.6060    4.0960 N.3    77  CYS77      -0.1235
    149  CA        26.5080    3.8530    5.4300 C.3    77  CYS77       0.1677
    150  C         26.2030    2.6870    6.3410 C.2    77  CYS77       0.2270
    151  O         25.3430    1.8620    6.0060 O.2    77  CYS77      -0.2867
    152  CB        25.9600    5.1700    5.9960 C.3    77  CYS77       0.0956
    153  SG        24.1920    5.2600    6.1550 S.3    77  CYS77      -0.0801
@<TRIPOS>BOND
     1   141   142    1
     2   141   147    1
     3   142   143    1
     4   142   145    1
     5   143   144    2
     6   147   146    1
     7   145   146    1
     8   148   149    1
     9    52    51    1
    10    52   153    1
    11    39    40    1
    12    45    44    1
    13    51    48    1
    14   138   137    2
    15   149   152    1
    16   149   150    1
    17    44    43    1
    18    44    46    1
    19    43    40    1
    20    47    48    1
    21    47    41   am
    22    16    17    2
    23    16    15    1
    24    40    41    1
    25   152   153    1
    26   151   150    2
    27    48    49    1
    28   137   136    1
    29    14    15    1
    30   140   139    1
    31    41    42    2
    32    15    18    1
    33    49    50    2
    34     9     8    2
    35   136   139    1
    36   136   135    1
    37   133   132    2
    38     8     7    1
    39    18    19    1
    40    20    19    1
    41   132   135   am
    42   132   131    1
    43    61    59   ar
    44    61    63   ar
    45     7     6    1
    46     7    10    1
    47     5     2    1
    48    19    21    1
    49     4     3    2
    50    59    58   ar
    51     6     3   am
    52    64    63    1
    53     3     2    1
    54    53    54    1
    55    38    36    1
    56    31    32    1
    57    22    23    1
    58    63    62   ar
    59    10    11    1
    60    10    12    1
    61   124   123    2
    62    36    37    1
    63    36    35    1
    64   131   134    1
    65   131   130    1
    66     2     1    1
    67    11    13    1
    68    32    35    1
    69    32    33    1
    70    58    57    1
    71    58    60   ar
    72    71    72    1
    73    71    70    1
    74    69    70    1
    75    69    66    1
    76    54    57    1
    77    54    55    1
    78    65    55   am
    79    65    66    1
    80    23    24    1
    81    23    26    1
    82   117   116    2
    83    24    25    2
    84    62    60   ar
    85   123   122    1
    86    72    73    1
    87    33    34    2
    88    55    56    2
    89    66    67    1
    90   122   125    1
    91   122   121    1
    92    26    27    1
    93    27    28    1
    94   116   121   am
    95   116   115    1
    96    30    28   am
    97   125   126    1
    98   126   127    1
    99   128   127   ar
   100    67    68    2
   101    28    29    2
   102   115   118    1
   103   115   114    1
   104   127   129   ar
   105   118   119    1
   106    86    87   ar
   107    86    84   ar
   108    94    93    1
   109   112   111    1
   110   114   120    1
   111    87    85   ar
   112    95    93    1
   113    84    81   ar
   114   119   120    1
   115    93    92    1
   116   111   113    1
   117   111   108    1
   118    85    83   ar
   119    81    83   ar
   120    81    79   ar
   121    83    82   ar
   122    92    89    1
   123   109   108    1
   124   109   110    2
   125   108   107    1
   126    78    79    1
   127    78    75    1
   128    79    80   ar
   129    89    88    1
   130    89    90    1
   131    88    76   am
   132    82    80   ar
   133    76    75    1
   134    76    77    2
   135    75    74    1
   136   102   104   ar
   137   102   101   ar
   138   104   106   ar
   139   100   101    1
   140   100    97    1
   141   101   103   ar
   142   106   105   ar
   143    90    91    2
   144   103   105   ar
   145    99    98    2
   146    97    98    1
   147    97    96    1
