@<TRIPOS>MOLECULE
tmp/2rkuA00.pdb
 173 165 0 0 0
SMALL
GASTEIGER

@<TRIPOS>ATOM
      1  N        -48.9110    2.0460   15.7500 N.3    21  ARG21      -0.1231
      2  CA       -49.9640    3.0380   15.9220 C.3    21  ARG21       0.1694
      3  C        -49.7990    4.2960   15.0530 C.2    21  ARG21       0.2592
      4  O        -48.7020    4.8500   14.9400 O.2    21  ARG21      -0.2718
      5  CB       -50.0750    3.3590   17.4180 C.3    21  ARG21       0.0321
      6  CG       -50.3140    4.7990   17.8040 C.3    21  ARG21       0.0489
      7  CD       -50.8320    4.8310   19.2430 C.3    21  ARG21       0.2205
      8  NE       -51.2270    6.1710   19.6790 N.pl3  21  ARG21      -0.0865
      9  CZ       -50.5600    6.8990   20.5700 C.cat  21  ARG21       0.5346
     10  NH1      -49.4480    6.4370   21.1420 N.pl3  21  ARG21       0.1354
     11  NH2      -51.0180    8.0980   20.9020 N.pl3  21  ARG21       0.1354
     12  N        -50.8940    4.6990   14.4130 N.am   22  PHE22      -0.1962
     13  CA       -50.9180    5.8900   13.5720 C.3    22  PHE22       0.1771
     14  C        -50.7830    7.1330   14.4510 C.2    22  PHE22       0.2619
     15  O        -51.4960    7.2720   15.4410 O.2    22  PHE22      -0.2715
     16  CB       -52.2110    5.9340   12.7420 C.3    22  PHE22       0.0574
     17  CG       -52.3760    7.1900   11.9120 C.ar   22  PHE22      -0.0200
     18  CD1      -51.4670    7.5120   10.9090 C.ar   22  PHE22      -0.0042
     19  CD2      -53.4670    8.0370   12.1190 C.ar   22  PHE22      -0.0042
     20  CE1      -51.6330    8.6820   10.1340 C.ar   22  PHE22      -0.0003
     21  CE2      -53.6410    9.1990   11.3540 C.ar   22  PHE22      -0.0003
     22  CZ       -52.7240    9.5160   10.3540 C.ar   22  PHE22      -0.0000
     23  N        -49.8730    8.0310   14.0890 N.am   23  LEU23      -0.1963
     24  CA       -49.6080    9.2260   14.9070 C.3    23  LEU23       0.1728
     25  C        -50.2620   10.4830   14.3260 C.2    23  LEU23       0.2617
     26  O        -50.5050   11.4510   15.0480 O.2    23  LEU23      -0.2715
     27  CB       -48.0850    9.4620   15.0760 C.3    23  LEU23       0.0311
     28  CG       -47.1730    8.3950   15.7050 C.3    23  LEU23       0.0022
     29  CD1      -45.7200    8.8450   15.7740 C.3    23  LEU23       0.0001
     30  CD2      -47.6630    7.9910   17.0940 C.3    23  LEU23       0.0001
     31  N        -50.5270   10.4760   13.0200 N.am   24  GLY24      -0.1940
     32  CA       -51.1110   11.6400   12.3620 C.3    24  GLY24       0.2014
     33  C        -50.4080   11.9520   11.0580 C.2    24  GLY24       0.2639
     34  O        -49.4390   11.2990   10.7040 O.2    24  GLY24      -0.2714
     35  N        -50.9040   12.9490   10.3340 N.am   25  LYS25      -0.1963
     36  CA       -50.1990   13.4180    9.1500 C.3    25  LYS25       0.1728
     37  C        -49.2370   14.5330    9.5550 C.2    25  LYS25       0.2616
     38  O        -49.5190   15.3020   10.4830 O.2    25  LYS25      -0.2715
     39  CB       -51.1660   13.9060    8.0620 C.3    25  LYS25       0.0311
     40  CG       -52.1380   12.8240    7.5690 C.3    25  LYS25       0.0038
     41  CD       -53.1030   13.3050    6.4730 C.3    25  LYS25       0.0206
     42  CE       -53.3040   12.2040    5.3960 C.3    25  LYS25       0.1093
     43  NZ       -54.2260   12.5390    4.2380 N.3    25  LYS25      -0.1314
     44  N        -48.0880   14.5760    8.8840 N.am   26  GLY26      -0.1955
     45  CA       -47.2150   15.7510    8.8860 C.3    26  GLY26       0.1869
     46  C        -46.8940   16.1370    7.4440 C.2    26  GLY26       0.2309
     47  O        -45.9480   15.6130    6.8620 O.2    26  GLY26      -0.2863
     48  N        -47.6090    9.4430    9.4930 N.3    31  CYS31      -0.1235
     49  CA       -46.6320    9.0490   10.5120 C.3    31  CYS31       0.1677
     50  C        -47.1320    7.9490   11.4510 C.2    31  CYS31       0.2270
     51  O        -48.2900    7.9270   11.7940 O.2    31  CYS31      -0.2867
     52  CB       -46.2190   10.2640   11.3160 C.3    31  CYS31       0.0956
     53  SG       -45.6490   11.6290   10.2670 S.3    31  CYS31      -0.0801
     54  N        -45.9300    5.0490   14.8560 N.3    33  GLU33      -0.1245
     55  CA       -44.9890    4.3760   15.7400 C.3    33  GLU33       0.1567
     56  C        -44.4310    3.2130   14.9230 C.2    33  GLU33       0.2260
     57  O        -45.1980    2.5070   14.2600 O.2    33  GLU33      -0.2867
     58  CB       -45.7100    3.8440   17.0040 C.3    33  GLU33       0.0388
     59  CG       -46.2070    4.9760   17.8950 C.3    33  GLU33       0.1160
     60  CD       -46.4720    4.5720   19.3590 C.2    33  GLU33       0.3649
     61  OE1      -46.4730    5.4810   20.2100 O.co2  33  GLU33      -0.2457
     62  OE2      -46.6640    3.3730   19.6610 O.co2  33  GLU33      -0.2457
     63  N        -40.5150    7.0070   15.6410 N.3    44  ALA44      -0.1231
     64  CA       -41.6250    7.6450   14.9480 C.3    44  ALA44       0.1694
     65  C        -41.2330    7.5300   13.4940 C.2    44  ALA44       0.2593
     66  O        -40.1940    8.0560   13.1010 O.2    44  ALA44      -0.2718
     67  CB       -41.7210    9.1130   15.3540 C.3    44  ALA44       0.0304
     68  N        -42.0270    6.8210   12.7060 N.am   45  GLY45      -0.1942
     69  CA       -41.7460    6.6870   11.2720 C.3    45  GLY45       0.2014
     70  C        -42.4960    7.7590   10.5060 C.2    45  GLY45       0.2638
     71  O        -43.6880    7.9440   10.7120 O.2    45  GLY45      -0.2714
     72  N        -41.7950    8.4740    9.6340 N.am   46  LYS46      -0.1977
     73  CA       -42.4360    9.4030    8.7360 C.3    46  LYS46       0.1596
     74  C        -42.4030    8.7790    7.3340 C.2    46  LYS46       0.2287
     75  O        -41.3260    8.4480    6.8060 O.2    46  LYS46      -0.2864
     76  CB       -41.6770   10.7120    8.7790 C.3    46  LYS46       0.0298
     77  CG       -42.3840   11.9010    8.1840 C.3    46  LYS46       0.0038
     78  CD       -41.5820   13.1230    8.5580 C.3    46  LYS46       0.0206
     79  CE       -42.0370   14.3510    7.8390 C.3    46  LYS46       0.1093
     80  NZ       -41.1050   15.4750    8.2170 N.3    46  LYS46      -0.1314
     81  N        -30.9930   17.0310    8.4730 N.3    69  HIS69      -0.1241
     82  CA       -31.3480   16.4300    9.7540 C.3    69  HIS69       0.1621
     83  C        -30.4020   15.2570   10.0760 C.2    69  HIS69       0.2264
     84  O        -30.0490   15.0190   11.2440 O.2    69  HIS69      -0.2867
     85  CB       -32.8230   15.9600    9.7330 C.3    69  HIS69       0.0745
     86  CG       -33.4170   15.7090   11.0950 C.ar   69  HIS69       0.0817
     87  ND1      -34.7770   15.5060   11.2890 N.ar   69  HIS69      -0.2268
     88  CD2      -32.8450   15.6480   12.3210 C.ar   69  HIS69       0.1154
     89  CE1      -35.0070   15.3100   12.5790 C.ar   69  HIS69       0.1986
     90  NE2      -33.8550   15.4000   13.2320 N.ar   69  HIS69      -0.2212
     91  N        -34.4150   16.6170   17.6030 N.3    78  VAL78      -0.1245
     92  CA       -35.0080   15.3060   17.3710 C.3    78  VAL78       0.1561
     93  C        -33.9340   14.3500   16.7810 C.2    78  VAL78       0.2260
     94  O        -33.2460   14.7100   15.8260 O.2    78  VAL78      -0.2867
     95  CB       -36.2040   15.4000   16.3910 C.3    78  VAL78       0.0252
     96  CG1      -36.5700   14.0060   15.8340 C.3    78  VAL78       0.0019
     97  CG2      -37.3710   16.0210   17.0840 C.3    78  VAL78       0.0019
     98  N        -37.2820    8.4730   12.9900 N.3    94  LEU94      -0.1231
     99  CA       -36.9580    9.5430   13.9260 C.3    94  LEU94       0.1693
    100  C        -37.2050    9.1780   15.3720 C.2    94  LEU94       0.2592
    101  O        -37.9580    8.2530   15.6520 O.2    94  LEU94      -0.2718
    102  CB       -37.7850   10.7720   13.5690 C.3    94  LEU94       0.0284
    103  CG       -37.6870   11.3330   12.1470 C.3    94  LEU94       0.0019
    104  CD1      -38.7840   12.3710   11.8960 C.3    94  LEU94       0.0001
    105  CD2      -36.3090   11.9120   11.8870 C.3    94  LEU94       0.0001
    106  N        -36.5850    9.9240   16.2850 N.am   95  GLU95      -0.1966
    107  CA       -36.8030    9.7770   17.7310 C.3    95  GLU95       0.1733
    108  C        -38.2910    9.8950   18.0450 C.2    95  GLU95       0.2616
    109  O        -38.9190   10.8490   17.6370 O.2    95  GLU95      -0.2715
    110  CB       -36.0060   10.8530   18.4670 C.3    95  GLU95       0.0429
    111  CG       -36.2060   10.8610   19.9580 C.3    95  GLU95       0.1163
    112  CD       -35.2320   11.7150   20.6950 C.2    95  GLU95       0.3649
    113  OE1      -35.1550   11.5260   21.9230 O.co2  95  GLU95      -0.2457
    114  OE2      -34.5600   12.5890   20.0980 O.co2  95  GLU95      -0.2457
    115  N        -38.8920    8.8990   18.7020 N.am   96  LEU96      -0.1963
    116  CA       -40.2880    9.0440   19.1090 C.3    96  LEU96       0.1728
    117  C        -40.3370    9.9500   20.3380 C.2    96  LEU96       0.2616
    118  O        -39.5940    9.7180   21.3010 O.2    96  LEU96      -0.2715
    119  CB       -40.9450    7.6970   19.4740 C.3    96  LEU96       0.0311
    120  CG       -42.4270    7.7410   19.8980 C.3    96  LEU96       0.0022
    121  CD1      -43.3920    8.0510   18.7310 C.3    96  LEU96       0.0001
    122  CD2      -42.8290    6.4020   20.5750 C.3    96  LEU96       0.0001
    123  N        -41.2060   10.9670   20.2920 N.am   97  CYS97      -0.1954
    124  CA       -41.3370   11.9430   21.3840 C.3    97  CYS97       0.1843
    125  C        -42.7170   11.7570   21.9840 C.2    97  CYS97       0.2625
    126  O        -43.6940   12.2220   21.4400 O.2    97  CYS97      -0.2714
    127  CB       -41.1610   13.3610   20.8480 C.3    97  CYS97       0.0997
    128  SG       -39.4430   13.6260   20.2280 S.3    97  CYS97      -0.0797
    129  N        -42.7750   11.0410   23.0930 N.am   98  ARG98      -0.1977
    130  CA       -44.0350   10.4800   23.5550 C.3    98  ARG98       0.1597
    131  C        -44.9920   11.5080   24.1620 C.2    98  ARG98       0.2287
    132  O        -46.1730   11.2000   24.3450 O.2    98  ARG98      -0.2864
    133  CB       -43.7920    9.3150   24.5240 C.3    98  ARG98       0.0334
    134  CG       -43.0690    8.1120   23.8780 C.3    98  ARG98       0.0492
    135  CD       -42.9630    6.9310   24.8660 C.3    98  ARG98       0.2205
    136  NE       -42.4720    5.6820   24.2470 N.pl3  98  ARG98      -0.0865
    137  CZ       -43.2590    4.7500   23.6970 C.cat  98  ARG98       0.5346
    138  NH1      -44.5810    4.9030   23.6590 N.pl3  98  ARG98       0.1354
    139  NH2      -42.7240    3.6430   23.1810 N.pl3  98  ARG98       0.1354
    140  N        -45.7230   14.3740   22.6020 N.3   100  ARG100     -0.1245
    141  CA       -46.0880   15.1920   21.4560 C.3   100  ARG100      0.1563
    142  C        -45.2570   16.4700   21.3850 C.2   100  ARG100      0.2260
    143  O        -44.0360   16.3690   21.4110 O.2   100  ARG100     -0.2867
    144  CB       -47.6100   15.3850   21.3980 C.3   100  ARG100      0.0307
    145  CG       -48.3090   13.9830   21.3690 C.3   100  ARG100      0.0489
    146  CD       -49.8460   14.0510   21.2230 C.3   100  ARG100      0.2205
    147  NE       -50.2550   14.6470   19.9570 N.pl3 100  ARG100     -0.0865
    148  CZ       -51.5190   14.9610   19.6580 C.cat 100  ARG100      0.5346
    149  NH1      -52.4860   14.7420   20.5500 N.pl3 100  ARG100      0.1354
    150  NH2      -51.8200   15.5080   18.4880 N.pl3 100  ARG100      0.1354
    151  N        -45.5180   23.5300   17.2710 N.3   144  GLY144     -0.1225
    152  CA       -45.7690   22.1960   16.6820 C.3   144  GLY144      0.1811
    153  C        -44.5370   21.3790   16.2950 C.2   144  GLY144      0.2280
    154  O        -44.6390   20.1510   16.0920 O.2   144  GLY144     -0.2866
    155  N        -40.8520   19.2800   19.9290 N.3   147  PHE147     -0.1241
    156  CA       -41.4080   18.0360   20.4850 C.3   147  PHE147      0.1605
    157  C        -40.9650   17.7890   21.9360 C.2   147  PHE147      0.2264
    158  O        -39.9430   18.2960   22.3730 O.2   147  PHE147     -0.2867
    159  CB       -41.0400   16.8300   19.5970 C.3   147  PHE147      0.0534
    160  CG       -41.5940   16.9190   18.2070 C.ar  147  PHE147     -0.0203
    161  CD1      -40.8790   17.5520   17.2020 C.ar  147  PHE147     -0.0042
    162  CD2      -42.8660   16.4410   17.9230 C.ar  147  PHE147     -0.0042
    163  CE1      -41.4090   17.6870   15.9250 C.ar  147  PHE147     -0.0003
    164  CE2      -43.3830   16.5620   16.6410 C.ar  147  PHE147     -0.0003
    165  CZ       -42.6360   17.1950   15.6490 C.ar  147  PHE147     -0.0000
    166  N        -38.6970   18.6590   12.5920 N.3   158  ASP158     -0.1239
    167  CA       -39.2080   19.1430   11.2870 C.3   158  ASP158      0.1674
    168  C        -38.2610   20.1100   10.5830 C.2   158  ASP158      0.2266
    169  O        -38.4830   21.3070   10.5750 O.2   158  ASP158     -0.2867
    170  CB       -40.6090   19.7420   11.3400 C.3   158  ASP158      0.1410
    171  CG       -41.2280   19.8480    9.9300 C.2   158  ASP158      0.3668
    172  OD1      -40.4760   19.8090    8.9250 O.co2 158  ASP158     -0.2456
    173  OD2      -42.4580   19.8930    9.8050 O.co2 158  ASP158     -0.2456
@<TRIPOS>BOND
     1    43    42    1
     2    42    41    1
     3    41    40    1
     4    75    74    2
     5    47    46    2
     6    74    73    1
     7    46    45    1
     8    40    39    1
     9    79    80    1
    10    79    78    1
    11    39    36    1
    12    77    78    1
    13    77    76    1
    14    81    82    1
    15    73    76    1
    16    73    72    1
    17    44    45    1
    18    44    37   am
    19   172   171   ar
    20    36    37    1
    21    36    35    1
    22    48    49    1
    23    37    38    2
    24    72    70   am
    25    85    82    1
    26    85    86    1
    27    82    83    1
    28   173   171   ar
    29   171   170    1
    30    83    84    2
    31    20    22   ar
    32    20    18   ar
    33    53    52    1
    34    35    33   am
    35    22    21   ar
    36    70    71    2
    37    70    69    1
    38    49    52    1
    39    49    50    1
    40   169   168    2
    41   168   167    1
    42    34    33    2
    43    18    17   ar
    44    33    32    1
    45    86    87   ar
    46    86    88   ar
    47    69    68    1
    48   167   170    1
    49   167   166    1
    50    87    89   ar
    51    21    19   ar
    52    50    51    2
    53   105   103    1
    54   104   103    1
    55    17    19   ar
    56    17    16    1
    57   103   102    1
    58    88    90   ar
    59    32    31    1
    60    89    90   ar
    61    68    65   am
    62    16    13    1
    63    98    99    1
    64    31    25   am
    65    66    65    2
    66    65    64    1
    67   102    99    1
    68    13    12    1
    69    13    14    1
    70    99   100    1
    71    23    14   am
    72    23    24    1
    73    57    56    2
    74    25    24    1
    75    25    26    2
    76    12     3   am
    77    14    15    2
    78    54    55    1
    79    24    27    1
    80    56    55    1
    81     4     3    2
    82    64    67    1
    83    64    63    1
    84     3     2    1
    85    27    28    1
    86   100   101    2
    87   100   106   am
    88   165   163   ar
    89   165   164   ar
    90    28    29    1
    91    28    30    1
    92    55    58    1
    93     1     2    1
    94    94    93    2
    95    96    95    1
    96     2     5    1
    97   163   161   ar
    98   154   153    2
    99   106   107    1
   100   153   152    1
   101    95    97    1
   102    95    92    1
   103   164   162   ar
   104   152   151    1
   105    93    92    1
   106    58    59    1
   107   161   160   ar
   108    92    91    1
   109     5     6    1
   110   109   108    2
   111   107   108    1
   112   107   110    1
   113     6     7    1
   114    59    60    1
   115   162   160   ar
   116   108   115   am
   117   160   159    1
   118   110   111    1
   119   150   148    1
   120   115   116    1
   121   121   120    1
   122   116   119    1
   123   116   117    1
   124     7     8    1
   125    60    62   ar
   126    60    61   ar
   127   119   120    1
   128   159   156    1
   129   148   147    2
   130   148   149    1
   131     8     9    2
   132   120   122    1
   133   155   156    1
   134   147   146    1
   135   111   112    1
   136   114   112   ar
   137   128   127    1
   138   123   117   am
   139   123   124    1
   140   117   118    2
   141   156   157    1
   142     9    11    1
   143     9    10    1
   144   112   113   ar
   145   127   124    1
   146   146   145    1
   147   145   144    1
   148   124   125    1
   149   142   143    2
   150   142   141    1
   151   144   141    1
   152   126   125    2
   153   141   140    1
   154   157   158    2
   155   125   129   am
   156   129   130    1
   157   139   137    1
   158   130   131    1
   159   130   133    1
   160   138   137    1
   161   137   136    2
   162   134   133    1
   163   134   135    1
   164   131   132    2
   165   136   135    1
