@<TRIPOS>MOLECULE
tmp/2rkvA02.pdb
 225 213 0 0 0
SMALL
GASTEIGER

@<TRIPOS>ATOM
      1  N         34.8740   41.8020   12.1440 N.3    12  LEU12      -0.1245
      2  CA        35.0190   40.5300   11.4000 C.3    12  LEU12       0.1561
      3  C         33.8080   40.3300   10.4870 C.2    12  LEU12       0.2260
      4  O         32.6600   40.3920   10.9580 O.2    12  LEU12      -0.2867
      5  CB        35.1540   39.3300   12.3500 C.3    12  LEU12       0.0270
      6  CG        36.5000   39.1000   13.0470 C.3    12  LEU12       0.0019
      7  CD1       36.3560   38.1850   14.2630 C.3    12  LEU12       0.0001
      8  CD2       37.5170   38.5400   12.0660 C.3    12  LEU12       0.0001
      9  N         32.3680   37.7930    9.1000 N.3    14  GLY14      -0.1210
     10  CA        31.4740   36.7010    9.4880 C.3    14  GLY14       0.1956
     11  C         30.4950   37.1070   10.5750 C.2    14  GLY14       0.2611
     12  O         29.3060   36.7850   10.5020 O.2    14  GLY14      -0.2717
     13  N         30.9960   37.8250   11.5760 N.am   15  LEU15      -0.1979
     14  CA        30.1810   38.2270   12.7200 C.3    15  LEU15       0.1596
     15  C         29.1500   39.2850   12.3370 C.2    15  LEU15       0.2287
     16  O         28.0380   39.3050   12.8770 O.2    15  LEU15      -0.2864
     17  CB        31.0730   38.7310   13.8530 C.3    15  LEU15       0.0297
     18  CG        32.0590   37.7100   14.4190 C.3    15  LEU15       0.0022
     19  CD1       32.7580   38.2940   15.6290 C.3    15  LEU15       0.0001
     20  CD2       31.3720   36.3980   14.7840 C.3    15  LEU15       0.0001
     21  N         27.3210   39.5180    9.7720 N.3    17  SER17      -0.1202
     22  CA        26.1690   39.0010    9.0130 C.3    17  SER17       0.2020
     23  C         25.2830   38.0110    9.7970 C.2    17  SER17       0.2618
     24  O         24.2740   37.5080    9.2720 O.2    17  SER17      -0.2717
     25  CB        26.6540   38.3420    7.7140 C.3    17  SER17       0.2103
     26  OG        27.5350   37.2660    7.9940 O.3    17  SER17      -0.2182
     27  N         25.6500   37.7570   11.0490 N.am   18  ILE18      -0.1979
     28  CA        25.0550   36.6900   11.8540 C.3    18  ILE18       0.1595
     29  C         24.2810   37.2490   13.0480 C.2    18  ILE18       0.2287
     30  O         24.6870   38.2510   13.6350 O.2    18  ILE18      -0.2864
     31  CB        26.1580   35.7290   12.3770 C.3    18  ILE18       0.0276
     32  CG1       26.7470   34.9030   11.2250 C.3    18  ILE18       0.0022
     33  CG2       25.6270   34.8070   13.4750 C.3    18  ILE18       0.0022
     34  CD1       27.9950   34.1080   11.6260 C.3    18  ILE18       0.0001
     35  N         22.9920   35.7710   16.7950 N.3    20  THR20      -0.1218
     36  CA        22.9790   34.7140   17.8090 C.3    20  THR20       0.1862
     37  C         21.6010   34.6380   18.4530 C.2    20  THR20       0.2287
     38  O         21.1110   35.6440   18.9740 O.2    20  THR20      -0.2866
     39  CB        24.0140   34.9760   18.9230 C.3    20  THR20       0.1770
     40  OG1       25.3200   35.1060   18.3440 O.3    20  THR20      -0.2211
     41  CG2       24.0080   33.8360   19.9540 C.3    20  THR20       0.0375
     42  N         19.2750   33.1940   11.9210 N.3   120  THR120     -0.1203
     43  CA        20.6780   33.2340   12.3110 C.3   120  THR120      0.1994
     44  C         21.5790   33.7110   11.1680 C.2   120  THR120      0.2618
     45  O         22.4530   34.5670   11.3590 O.2   120  THR120     -0.2717
     46  CB        21.1390   31.8390   12.7660 C.3   120  THR120      0.1784
     47  OG1       20.4410   31.4750   13.9640 O.3   120  THR120     -0.2211
     48  CG2       22.6380   31.8290   13.0240 C.3   120  THR120      0.0376
     49  N         21.3590   33.1430    9.9850 N.am  121  LEU121     -0.1966
     50  CA        22.1920   33.4160    8.8290 C.3   121  LEU121      0.1713
     51  C         21.5280   34.4360    7.9060 C.2   121  LEU121      0.2458
     52  O         20.3060   34.5930    7.9470 O.2   121  LEU121     -0.2730
     53  CB        22.4960   32.1080    8.0810 C.3   121  LEU121      0.0310
     54  CG        23.1940   31.0300    8.9220 C.3   121  LEU121      0.0022
     55  CD1       23.2920   29.6930    8.1720 C.3   121  LEU121      0.0001
     56  CD2       24.5750   31.4820    9.4300 C.3   121  LEU121      0.0001
     57  N         22.3360   35.1430    7.0810 N.am  122  PRO122     -0.2727
     58  CA        21.8100   36.1270    6.1310 C.3   122  PRO122      0.1402
     59  C         21.1370   35.4490    4.9360 C.2   122  PRO122      0.2269
     60  O         21.6200   35.5480    3.8020 O.2   122  PRO122     -0.2865
     61  CB        23.0630   36.8930    5.6950 C.3   122  PRO122      0.0296
     62  CG        24.1630   35.8970    5.8150 C.3   122  PRO122      0.0237
     63  CD        23.8120   35.0660    7.0280 C.3   122  PRO122      0.0939
     64  N         25.7420   39.7600   15.9590 N.3   155  HIS155     -0.1241
     65  CA        27.0070   39.2520   16.4500 C.3   155  HIS155      0.1621
     66  C         28.2080   40.1900   16.3820 C.2   155  HIS155      0.2264
     67  O         29.1230   39.9790   17.0820 O.2   155  HIS155     -0.2867
     68  CB        27.3730   37.8910   15.7810 C.3   155  HIS155      0.0745
     69  CG        28.1810   36.9520   16.6340 C.ar  155  HIS155      0.0817
     70  ND1       29.1730   37.3450   17.4940 N.ar  155  HIS155     -0.2268
     71  CD2       28.1150   35.6150   16.7520 C.ar  155  HIS155      0.1154
     72  CE1       29.6980   36.2920   18.0870 C.ar  155  HIS155      0.1986
     73  NE2       29.0780   35.2250   17.6410 N.ar  155  HIS155     -0.2212
     74  N         28.0390   35.9550   22.9710 N.3   160  MET160     -0.1245
     75  CA        27.0040   35.4720   23.8890 C.3   160  MET160      0.1570
     76  C         27.2100   35.9600   25.3290 C.2   160  MET160      0.2261
     77  O         26.2410   36.1110   26.0830 O.2   160  MET160     -0.2867
     78  CB        26.8470   33.9460   23.8160 C.3   160  MET160      0.0387
     79  CG        25.8240   33.3840   24.7870 C.3   160  MET160      0.0595
     80  SD        24.1880   34.1400   24.6150 S.3   160  MET160     -0.1393
     81  CE        23.4080   32.9860   23.4800 C.3   160  MET160      0.0692
     82  N         35.8370   28.4970   21.0010 N.3   284  ALA284     -0.1245
     83  CA        35.5420   29.8940   21.3460 C.3   284  ALA284      0.1562
     84  C         35.9420   30.1740   22.7920 C.2   284  ALA284      0.2260
     85  O         35.6510   29.3800   23.7000 O.2   284  ALA284     -0.2867
     86  CB        34.0680   30.2120   21.1320 C.3   284  ALA284      0.0290
     87  N         31.6350   42.5620   21.8960 N.3   300  LEU300     -0.1245
     88  CA        32.2200   41.3880   21.2710 C.3   300  LEU300      0.1561
     89  C         33.7010   41.3640   21.6430 C.2   300  LEU300      0.2260
     90  O         34.5020   42.1740   21.1620 O.2   300  LEU300     -0.2867
     91  CB        32.0020   41.4430   19.7510 C.3   300  LEU300      0.0270
     92  CG        32.3900   40.2810   18.8230 C.3   300  LEU300      0.0019
     93  CD1       33.9070   40.0700   18.7650 C.3   300  LEU300      0.0001
     94  CD2       31.7110   39.0050   19.2190 C.3   300  LEU300      0.0001
     95  N         35.9890   38.2030   22.0720 N.3   302  GLN302     -0.1231
     96  CA        36.1280   36.7670   22.0150 C.3   302  GLN302      0.1698
     97  C         37.2330   36.4310   21.0330 C.2   302  GLN302      0.2592
     98  O         37.5150   37.1930   20.1010 O.2   302  GLN302     -0.2718
     99  CB        34.8040   36.1320   21.5690 C.3   302  GLN302      0.0381
    100  CG        34.8180   34.6270   21.6480 C.3   302  GLN302      0.0905
    101  CD        33.4900   34.0300   22.0140 C.2   302  GLN302      0.2608
    102  OE1       32.4640   34.2820   21.3820 O.2   302  GLN302     -0.2717
    103  NE2       33.5060   33.2160   23.0470 N.am  302  GLN302     -0.0878
    104  N         37.8800   35.3030   21.2750 N.am  303  ASN303     -0.1960
    105  CA        38.8050   34.7540   20.3080 C.3   303  ASN303      0.1819
    106  C         38.5390   33.2560   20.2250 C.2   303  ASN303      0.2621
    107  O         37.5500   32.7620   20.7900 O.2   303  ASN303     -0.2715
    108  CB        40.2410   35.0560   20.7370 C.3   303  ASN303      0.1195
    109  CG        41.2090   35.1220   19.5610 C.2   303  ASN303      0.2630
    110  OD1       40.9250   34.6060   18.4700 O.2   303  ASN303     -0.2716
    111  ND2       42.3490   35.7730   19.7740 N.am  303  ASN303     -0.0877
    112  N         39.3920   32.5420   19.4990 N.am  304  MET304     -0.1977
    113  CA        39.3830   31.0840   19.4660 C.3   304  MET304      0.1605
    114  C         40.7420   30.5780   19.9310 C.2   304  MET304      0.2287
    115  O         41.7390   31.3040   19.8350 O.2   304  MET304     -0.2864
    116  CB        39.1570   30.5690   18.0390 C.3   304  MET304      0.0413
    117  CG        37.9920   31.1970   17.2830 C.3   304  MET304      0.0598
    118  SD        36.3850   30.7480   17.9510 S.3   304  MET304     -0.1393
    119  CE        36.3110   29.0180   17.5250 C.3   304  MET304      0.0692
    120  N         39.0400   35.4510    9.2300 N.3   356  SER356     -0.1202
    121  CA        37.9790   34.5600    9.6740 C.3   356  SER356      0.2020
    122  C         38.4730   33.7480   10.8530 C.2   356  SER356      0.2619
    123  O         39.5870   33.2240   10.8270 O.2   356  SER356     -0.2717
    124  CB        37.5480   33.6170    8.5500 C.3   356  SER356      0.2103
    125  OG        36.6110   32.6670    9.0310 O.3   356  SER356     -0.2182
    126  N         37.6360   33.6520   11.8800 N.am  357  LEU357     -0.1965
    127  CA        37.9400   32.8230   13.0510 C.3   357  LEU357      0.1728
    128  C         38.0580   31.3350   12.7040 C.2   357  LEU357      0.2616
    129  O         38.5850   30.5460   13.4980 O.2   357  LEU357     -0.2715
    130  CB        36.8800   33.0290   14.1350 C.3   357  LEU357      0.0311
    131  CG        36.8640   34.4260   14.7670 C.3   357  LEU357      0.0022
    132  CD1       35.5330   34.6850   15.4650 C.3   357  LEU357      0.0001
    133  CD2       38.0400   34.6230   15.7280 C.3   357  LEU357      0.0001
    134  N         37.5570   30.9490   11.5310 N.am  358  THR358     -0.1951
    135  CA        37.6590   29.5560   11.0880 C.3   358  THR358      0.1897
    136  C         38.3270   29.4530    9.7170 C.2   358  THR358      0.2313
    137  O         37.9740   28.5850    8.9110 O.2   358  THR358     -0.2863
    138  CB        36.2890   28.8530   11.0520 C.3   358  THR358      0.1794
    139  OG1       35.4080   29.5800   10.1850 O.3   358  THR358     -0.2208
    140  CG2       35.6890   28.7410   12.4590 C.3   358  THR358      0.0378
    141  N         34.1620   23.0030   15.4760 N.3   368  MET368     -0.1230
    142  CA        34.0920   24.4290   15.8010 C.3   368  MET368      0.1702
    143  C         33.0750   24.5770   16.9240 C.2   368  MET368      0.2592
    144  O         31.8730   24.5230   16.6760 O.2   368  MET368     -0.2718
    145  CB        33.6740   25.2520   14.5780 C.3   368  MET368      0.0401
    146  CG        34.5650   25.0420   13.3420 C.3   368  MET368      0.0596
    147  SD        33.8790   25.7140   11.8110 S.3   368  MET368     -0.1393
    148  CE        32.4500   24.6510   11.5650 C.3   368  MET368      0.0692
    149  N         33.5620   24.7350   18.1520 N.am  369  LEU369     -0.1966
    150  CA        32.7000   24.6920   19.3360 C.3   369  LEU369      0.1728
    151  C         32.6830   26.0050   20.1090 C.2   369  LEU369      0.2616
    152  O         33.7350   26.5950   20.3680 O.2   369  LEU369     -0.2715
    153  CB        33.1270   23.5550   20.2790 C.3   369  LEU369      0.0311
    154  CG        32.5290   23.6150   21.6960 C.3   369  LEU369      0.0022
    155  CD1       31.0740   23.1620   21.6950 C.3   369  LEU369      0.0001
    156  CD2       33.3390   22.8170   22.6930 C.3   369  LEU369      0.0001
    157  N         31.4800   26.4470   20.4800 N.am  370  SER370     -0.1950
    158  CA        31.3340   27.5720   21.4030 C.3   370  SER370      0.1924
    159  C         30.5220   27.1690   22.6150 C.2   370  SER370      0.2314
    160  O         29.3530   26.7980   22.4970 O.2   370  SER370     -0.2863
    161  CB        30.6960   28.7860   20.7300 C.3   370  SER370      0.2116
    162  OG        30.5980   29.8660   21.6540 O.3   370  SER370     -0.2180
    163  N         28.4860   27.9780   25.8410 N.3   372  TRP372     -0.1241
    164  CA        27.7050   28.9690   26.5770 C.3   372  TRP372      0.1605
    165  C         27.4180   28.4900   27.9930 C.2   372  TRP372      0.2264
    166  O         26.5520   29.0410   28.6840 O.2   372  TRP372     -0.2867
    167  CB        26.3890   29.2530   25.8380 C.3   372  TRP372      0.0550
    168  CG        26.5640   29.7740   24.4420 C.ar  372  TRP372      0.0003
    169  CD1       27.6920   30.3380   23.8990 C.ar  372  TRP372      0.0946
    170  CD2       25.5610   29.8210   23.4220 C.ar  372  TRP372      0.0152
    171  NE1       27.4500   30.7160   22.5950 N.ar  372  TRP372     -0.2442
    172  CE2       26.1490   30.4140   22.2810 C.ar  372  TRP372      0.0810
    173  CE3       24.2180   29.4180   23.3610 C.ar  372  TRP372      0.0012
    174  CZ2       25.4410   30.6100   21.0850 C.ar  372  TRP372      0.0191
    175  CZ3       23.5080   29.6180   22.1690 C.ar  372  TRP372      0.0001
    176  CH2       24.1260   30.2100   21.0500 C.ar  372  TRP372      0.0015
    177  N         19.1640   26.7070   22.2450 N.3   394  ARG394     -0.1245
    178  CA        19.3850   27.4100   20.9980 C.3   394  ARG394      0.1563
    179  C         18.4220   26.9160   19.9170 C.2   394  ARG394      0.2260
    180  O         18.3050   25.6960   19.6990 O.2   394  ARG394     -0.2867
    181  CB        20.8220   27.2300   20.5030 C.3   394  ARG394      0.0307
    182  CG        21.2020   28.3480   19.5630 C.3   394  ARG394      0.0489
    183  CD        22.1170   27.9610   18.4080 C.3   394  ARG394      0.2205
    184  NE        22.4560   29.1820   17.6720 N.pl3 394  ARG394     -0.0865
    185  CZ        21.6300   29.8080   16.8270 C.cat 394  ARG394      0.5346
    186  NH1       20.4220   29.3130   16.5650 N.pl3 394  ARG394      0.1354
    187  NH2       22.0130   30.9360   16.2390 N.pl3 394  ARG394      0.1354
    188  N         18.6790   25.9120   13.1500 N.3   397  PHE397     -0.1241
    189  CA        18.7840   26.6270   11.8920 C.3   397  PHE397      0.1605
    190  C         19.4250   25.6960   10.8620 C.2   397  PHE397      0.2264
    191  O         19.4390   24.4710   11.0680 O.2   397  PHE397     -0.2867
    192  CB        19.5100   27.9810   12.0520 C.3   397  PHE397      0.0534
    193  CG        20.9420   27.8920   12.5430 C.ar  397  PHE397     -0.0203
    194  CD1       21.9950   28.2380   11.6960 C.ar  397  PHE397     -0.0042
    195  CD2       21.2360   27.5360   13.8650 C.ar  397  PHE397     -0.0042
    196  CE1       23.3310   28.1900   12.1360 C.ar  397  PHE397     -0.0003
    197  CE2       22.5710   27.4900   14.3210 C.ar  397  PHE397     -0.0003
    198  CZ        23.6190   27.8240   13.4450 C.ar  397  PHE397     -0.0000
    199  N         25.2750   23.3160    9.8020 N.3   400  VAL400     -0.1245
    200  CA        26.5920   23.8500    9.4950 C.3   400  VAL400      0.1561
    201  C         27.5750   22.8010    9.9900 C.2   400  VAL400      0.2260
    202  O         27.8090   22.6860   11.1990 O.2   400  VAL400     -0.2867
    203  CB        26.8560   25.1990   10.2190 C.3   400  VAL400      0.0252
    204  CG1       28.2560   25.7200    9.9080 C.3   400  VAL400      0.0019
    205  CG2       25.7980   26.2400    9.8440 C.3   400  VAL400      0.0019
    206  N         29.9290   22.5350   13.3430 N.3   403  LEU403     -0.1245
    207  CA        29.5980   23.5920   14.3000 C.3   403  LEU403      0.1561
    208  C         28.9150   22.9870   15.5260 C.2   403  LEU403      0.2260
    209  O         28.0360   22.1230   15.4030 O.2   403  LEU403     -0.2867
    210  CB        28.6910   24.6450   13.6530 C.3   403  LEU403      0.0270
    211  CG        28.3300   25.8820   14.4810 C.3   403  LEU403      0.0019
    212  CD1       29.5770   26.6480   14.9210 C.3   403  LEU403      0.0001
    213  CD2       27.3990   26.7720   13.6520 C.3   403  LEU403      0.0001
    214  N         27.6410   23.7720   19.9090 N.3   405  TYR405     -0.1241
    215  CA        27.4510   24.6320   21.0850 C.3   405  TYR405      0.1605
    216  C         27.2380   23.8220   22.3560 C.2   405  TYR405      0.2264
    217  O         26.6970   22.7080   22.3130 O.2   405  TYR405     -0.2867
    218  CB        26.2300   25.5470   20.9040 C.3   405  TYR405      0.0534
    219  CG        26.3440   26.4630   19.7140 C.ar  405  TYR405     -0.0201
    220  CD1       25.7910   26.1120   18.4810 C.ar  405  TYR405     -0.0009
    221  CD2       27.0210   27.6780   19.8140 C.ar  405  TYR405     -0.0009
    222  CE1       25.9160   26.9530   17.3680 C.ar  405  TYR405      0.0417
    223  CE2       27.1500   28.5230   18.7130 C.ar  405  TYR405      0.0417
    224  CZ        26.5900   28.1560   17.4930 C.ar  405  TYR405      0.1957
    225  OH        26.7290   28.9980   16.4050 O.3   405  TYR405     -0.2866
@<TRIPOS>BOND
     1    60    59    2
     2    59    58    1
     3    61    62    1
     4    61    58    1
     5    62    63    1
     6    58    57    1
     7    63    57    1
     8    57    51   am
     9    25    26    1
    10    25    22    1
    11    51    52    2
    12    51    50    1
    13    53    50    1
    14    53    54    1
    15    55    54    1
    16   124   125    1
    17   124   121    1
    18    50    49    1
    19   137   136    2
    20    54    56    1
    21    22    21    1
    22    22    23    1
    23     9    10    1
    24   120   121    1
    25    24    23    2
    26    10    11    1
    27   200   199    1
    28   200   201    1
    29   200   203    1
    30   121   122    1
    31   136   135    1
    32    23    27   am
    33   205   203    1
    34   204   203    1
    35    49    44   am
    36   201   202    2
    37   139   138    1
    38     3     4    2
    39     3     2    1
    40    12    11    2
    41    11    13   am
    42   123   122    2
    43   122   126   am
    44   190   191    2
    45   190   189    1
    46    27    28    1
    47   138   135    1
    48   138   140    1
    49   135   134    1
    50    44    45    2
    51    44    43    1
    52    32    34    1
    53    32    31    1
    54     2     1    1
    55     2     5    1
    56   134   128   am
    57   148   147    1
    58    13    14    1
    59   194   196   ar
    60   194   193   ar
    61   147   146    1
    62    28    31    1
    63    28    29    1
    64   126   127    1
    65   189   192    1
    66   189   188    1
    67    42    43    1
    68   192   193    1
    69     8     6    1
    70   196   198   ar
    71    43    46    1
    72    15    14    1
    73    15    16    2
    74     5     6    1
    75    31    33    1
    76   193   195   ar
    77   128   127    1
    78   128   129    2
    79    14    17    1
    80    46    48    1
    81    46    47    1
    82     6     7    1
    83    29    30    2
    84   127   130    1
    85   146   145    1
    86   206   207    1
    87   198   197   ar
    88   213   211    1
    89   210   207    1
    90   210   211    1
    91    17    18    1
    92   195   197   ar
    93   130   131    1
    94   207   208    1
    95    18    20    1
    96    18    19    1
    97   211   212    1
    98   145   142    1
    99   131   132    1
   100   131   133    1
   101   209   208    2
   102   141   142    1
   103    68    65    1
   104    68    69    1
   105   142   143    1
   106    64    65    1
   107   187   185    1
   108    66    65    1
   109    66    67    2
   110   225   224    1
   111   186   185    1
   112    69    71   ar
   113    69    70   ar
   114   144   143    2
   115    71    73   ar
   116    35    36    1
   117   185   184    2
   118   143   149   am
   119   117   118    1
   120   117   116    1
   121   222   224   ar
   122   222   220   ar
   123   224   223   ar
   124    70    72   ar
   125   119   118    1
   126    73    72   ar
   127   184   183    1
   128    36    37    1
   129    36    39    1
   130   116   113    1
   131   149   150    1
   132    40    39    1
   133   183   182    1
   134    37    38    2
   135   110   109    2
   136   220   219   ar
   137   223   221   ar
   138    93    92    1
   139    92    94    1
   140    92    91    1
   141    39    41    1
   142   150   151    1
   143   150   153    1
   144   113   112    1
   145   113   114    1
   146   112   106   am
   147   109   111   am
   148   109   108    1
   149   182   181    1
   150   180   179    2
   151   219   221   ar
   152   219   218    1
   153    91    88    1
   154   115   114    2
   155   214   215    1
   156   179   178    1
   157    98    97    2
   158   151   152    2
   159   151   157   am
   160   106   105    1
   161   106   107    2
   162   153   154    1
   163   105   108    1
   164   105   104    1
   165   157   158    1
   166   181   178    1
   167   161   158    1
   168   161   162    1
   169   218   215    1
   170   178   177    1
   171    82    83    1
   172    97   104   am
   173    97    96    1
   174   176   174   ar
   175   176   175   ar
   176   215   216    1
   177   174   172   ar
   178    86    83    1
   179    90    89    2
   180    88    89    1
   181    88    87    1
   182    83    84    1
   183   102   101    2
   184   158   159    1
   185    99   100    1
   186    99    96    1
   187   100   101    1
   188   155   154    1
   189   154   156    1
   190   101   103   am
   191    96    95    1
   192   175   173   ar
   193   172   171   ar
   194   172   170   ar
   195   217   216    2
   196   160   159    2
   197   171   169   ar
   198    84    85    2
   199    74    75    1
   200   173   170   ar
   201   170   168   ar
   202    81    80    1
   203    78    75    1
   204    78    79    1
   205    75    76    1
   206   169   168   ar
   207   168   167    1
   208    80    79    1
   209    76    77    2
   210   167   164    1
   211   163   164    1
   212   164   165    1
   213   165   166    2
