@<TRIPOS>MOLECULE
tmp/2rl2A00.pdb
 94 89 0 0 0
SMALL
GASTEIGER

@<TRIPOS>ATOM
      1  N         25.3430  -49.8170   40.4770 N.3    93  ARG93      -0.1245
      2  CA        24.5270  -49.6480   41.6680 C.3    93  ARG93       0.1563
      3  C         24.4660  -48.2090   42.1730 C.2    93  ARG93       0.2260
      4  O         23.5370  -47.8400   42.8850 O.2    93  ARG93      -0.2867
      5  CB        25.0290  -50.5670   42.7890 C.3    93  ARG93       0.0307
      6  CG        26.4860  -50.3660   43.1560 C.3    93  ARG93       0.0489
      7  CD        26.7480  -50.8300   44.5720 C.3    93  ARG93       0.2205
      8  NE        25.9650  -50.0550   45.5320 N.pl3  93  ARG93      -0.0865
      9  CZ        26.1340  -48.7570   45.7690 C.cat  93  ARG93       0.5346
     10  NH1       27.0730  -48.0740   45.1190 N.pl3  93  ARG93       0.1354
     11  NH2       25.3490  -48.1350   46.6420 N.pl3  93  ARG93       0.1354
     12  N         21.4290  -55.5600   42.6590 N.3   115  GLY115     -0.1210
     13  CA        21.6050  -56.9960   42.5350 C.3   115  GLY115      0.1956
     14  C         22.6880  -57.4700   43.4820 C.2   115  GLY115      0.2612
     15  O         23.1180  -56.7200   44.3560 O.2   115  GLY115     -0.2717
     16  N         23.1230  -58.7170   43.3210 N.am  116  GLY116     -0.1942
     17  CA        24.1680  -59.2500   44.1760 C.3   116  GLY116      0.2014
     18  C         25.5230  -58.6520   43.8280 C.2   116  GLY116      0.2639
     19  O         25.7740  -58.3240   42.6670 O.2   116  GLY116     -0.2714
     20  N         26.3910  -58.5110   44.8310 N.am  117  CYS117     -0.1953
     21  CA        27.7270  -57.9460   44.6390 C.3   117  CYS117      0.1843
     22  C         28.7870  -58.8700   45.2430 C.2   117  CYS117      0.2626
     23  O         28.6010  -59.4030   46.3360 O.2   117  CYS117     -0.2714
     24  CB        27.8030  -56.5630   45.2910 C.3   117  CYS117      0.0997
     25  SG        29.4370  -55.7690   45.2060 S.3   117  CYS117     -0.0797
     26  N         29.9030  -59.0400   44.5360 N.am  118  SER118     -0.1936
     27  CA        30.9750  -59.9260   44.9860 C.3   118  SER118      0.2055
     28  C         31.7230  -59.5240   46.2550 C.2   118  SER118      0.2642
     29  O         32.2040  -60.3930   46.9760 O.2   118  SER118     -0.2714
     30  CB        31.9880  -60.1570   43.8550 C.3   118  SER118      0.2130
     31  OG        32.6280  -58.9550   43.4640 O.3   118  SER118     -0.2179
     32  N         31.8360  -58.2310   46.5430 N.am  119  ILE119     -0.1977
     33  CA        32.5460  -57.8250   47.7550 C.3   119  ILE119      0.1596
     34  C         31.6710  -57.8650   49.0080 C.2   119  ILE119      0.2287
     35  O         32.1900  -57.8840   50.1300 O.2   119  ILE119     -0.2864
     36  CB        33.1600  -56.4120   47.6330 C.3   119  ILE119      0.0276
     37  CG1       32.0680  -55.3760   47.3670 C.3   119  ILE119      0.0022
     38  CG2       34.2200  -56.4000   46.5360 C.3   119  ILE119      0.0022
     39  CD1       32.5600  -53.9480   47.4680 C.3   119  ILE119      0.0001
     40  N         24.9070  -55.1590   49.3280 N.3   122  ARG122     -0.1245
     41  CA        24.7850  -53.7350   49.0290 C.3   122  ARG122      0.1563
     42  C         23.3170  -53.3000   48.9810 C.2   122  ARG122      0.2260
     43  O         22.8710  -52.7120   47.9960 O.2   122  ARG122     -0.2867
     44  CB        25.4480  -53.4230   47.6830 C.3   122  ARG122      0.0307
     45  CG        26.8840  -53.9210   47.5490 C.3   122  ARG122      0.0489
     46  CD        27.8280  -53.2270   48.5240 C.3   122  ARG122      0.2205
     47  NE        28.0970  -51.8290   48.1890 N.pl3 122  ARG122     -0.0865
     48  CZ        28.8840  -51.4240   47.1970 C.cat 122  ARG122      0.5346
     49  NH1       29.4940  -52.3100   46.4160 N.pl3 122  ARG122      0.1354
     50  NH2       29.0790  -50.1280   46.9980 N.pl3 122  ARG122      0.1354
     51  N         39.3510  -59.1940   40.3230 N.3   370  THR370     -0.1203
     52  CA        38.0280  -59.5340   40.8440 C.3   370  THR370      0.1994
     53  C         37.1510  -58.3170   41.1190 C.2   370  THR370      0.2618
     54  O         35.9280  -58.4260   41.1430 O.2   370  THR370     -0.2717
     55  CB        38.1410  -60.3390   42.1510 C.3   370  THR370      0.1784
     56  OG1       38.9490  -59.6100   43.0780 O.3   370  THR370     -0.2211
     57  CG2       38.7790  -61.7010   41.8990 C.3   370  THR370      0.0376
     58  N         37.7750  -57.1660   41.3420 N.am  371  ASP371     -0.1959
     59  CA        37.0350  -55.9400   41.6170 C.3   371  ASP371      0.1840
     60  C         37.9040  -54.7110   41.3270 C.2   371  ASP371      0.2621
     61  O         39.0880  -54.8430   41.0070 O.2   371  ASP371     -0.2715
     62  CB        36.5370  -55.9480   43.0730 C.3   371  ASP371      0.1450
     63  CG        37.6610  -56.1450   44.0830 C.2   371  ASP371      0.3671
     64  OD1       38.2750  -55.1410   44.5010 O.co2 371  ASP371     -0.2456
     65  OD2       37.9340  -57.3070   44.4540 O.co2 371  ASP371     -0.2456
     66  N         37.3160  -53.5210   41.4390 N.am  372  LEU372     -0.1977
     67  CA        38.0210  -52.2720   41.1450 C.3   372  LEU372      0.1596
     68  C         39.3410  -52.0200   41.8720 C.2   372  LEU372      0.2287
     69  O         40.3820  -51.8370   41.2420 O.2   372  LEU372     -0.2864
     70  CB        37.0930  -51.0740   41.3780 C.3   372  LEU372      0.0297
     71  CG        37.7390  -49.6920   41.2380 C.3   372  LEU372      0.0022
     72  CD1       38.3810  -49.5480   39.8630 C.3   372  LEU372      0.0001
     73  CD2       36.6910  -48.6120   41.4630 C.3   372  LEU372      0.0001
     74  N         37.9940  -53.9140   35.0130 N.3   396  HIS396     -0.1241
     75  CA        37.6360  -53.3890   36.3260 C.3   396  HIS396      0.1621
     76  C         38.3050  -52.0440   36.6380 C.2   396  HIS396      0.2264
     77  O         37.6740  -51.1570   37.2140 O.2   396  HIS396     -0.2867
     78  CB        38.0050  -54.3930   37.4260 C.3   396  HIS396      0.0745
     79  CG        37.0080  -55.4970   37.6070 C.ar  396  HIS396      0.0817
     80  ND1       37.2930  -56.8150   37.3170 N.ar  396  HIS396     -0.2268
     81  CD2       35.7390  -55.4820   38.0800 C.ar  396  HIS396      0.1154
     82  CE1       36.2440  -57.5640   37.6070 C.ar  396  HIS396      0.1986
     83  NE2       35.2880  -56.7800   38.0720 N.ar  396  HIS396     -0.2212
     84  N         36.9310  -48.4890   35.7550 N.3   399  ARG399     -0.1245
     85  CA        35.7730  -47.9960   36.4900 C.3   399  ARG399      0.1563
     86  C         36.1620  -46.8610   37.4290 C.2   399  ARG399      0.2260
     87  O         35.3220  -46.0350   37.7880 O.2   399  ARG399     -0.2867
     88  CB        35.1380  -49.1130   37.3210 C.3   399  ARG399      0.0307
     89  CG        34.3080  -50.1170   36.5390 C.3   399  ARG399      0.0489
     90  CD        33.4620  -50.9340   37.5050 C.3   399  ARG399      0.2205
     91  NE        32.7370  -50.0600   38.4230 N.pl3 399  ARG399     -0.0865
     92  CZ        32.8670  -50.0830   39.7480 C.cat 399  ARG399      0.5346
     93  NH1       33.6930  -50.9440   40.3270 N.pl3 399  ARG399      0.1354
     94  NH2       32.1820  -49.2280   40.4950 N.pl3 399  ARG399      0.1354
@<TRIPOS>BOND
     1    74    75    1
     2    84    85    1
     3    75    76    1
     4    75    78    1
     5    85    88    1
     6    85    86    1
     7    89    88    1
     8    89    90    1
     9    76    77    2
    10    80    82   ar
    11    80    79   ar
    12    78    79    1
    13    86    87    2
    14    90    91    1
    15    82    83   ar
    16    79    81   ar
    17    83    81   ar
    18    91    92    2
    19    92    93    1
    20    92    94    1
    21    72    71    1
    22    51    52    1
    23     1     2    1
    24    52    53    1
    25    52    55    1
    26    61    60    2
    27    53    54    2
    28    53    58   am
    29    67    70    1
    30    67    66    1
    31    67    68    1
    32    71    70    1
    33    71    73    1
    34    69    68    2
    35    60    66   am
    36    60    59    1
    37    58    59    1
    38    59    62    1
    39     2     3    1
    40     2     5    1
    41    57    55    1
    42    55    56    1
    43     3     4    2
    44    13    12    1
    45    13    14    1
    46    19    18    2
    47     5     6    1
    48    62    63    1
    49     6     7    1
    50    16    14   am
    51    16    17    1
    52    31    30    1
    53    14    15    2
    54    18    17    1
    55    18    20   am
    56    30    27    1
    57    63    65   ar
    58    63    64   ar
    59    26    27    1
    60    26    22   am
    61     7     8    1
    62    21    20    1
    63    21    22    1
    64    21    24    1
    65    27    28    1
    66    10     9    1
    67    25    24    1
    68    22    23    2
    69     8     9    2
    70     9    11    1
    71    28    32   am
    72    28    29    2
    73    49    48    1
    74    38    36    1
    75    32    33    1
    76    50    48    1
    77    48    47    2
    78    37    39    1
    79    37    36    1
    80    45    44    1
    81    45    46    1
    82    36    33    1
    83    44    41    1
    84    33    34    1
    85    43    42    2
    86    47    46    1
    87    42    41    1
    88    34    35    2
    89    41    40    1
