@<TRIPOS>MOLECULE
tmp/2rl2A01.pdb
 240 232 0 0 0
SMALL
GASTEIGER

@<TRIPOS>ATOM
      1  N         35.9330  -40.1510   41.4420 N.3    22  LYS22      -0.1231
      2  CA        34.8000  -40.8590   40.8610 C.3    22  LYS22       0.1693
      3  C         33.6220  -40.7830   41.8170 C.2    22  LYS22       0.2592
      4  O         32.4900  -40.5340   41.4070 O.2    22  LYS22      -0.2718
      5  CB        35.1240  -42.3380   40.6360 C.3    22  LYS22       0.0285
      6  CG        33.8880  -43.1560   40.2400 C.3    22  LYS22       0.0035
      7  CD        34.1990  -44.6210   39.9640 C.3    22  LYS22       0.0206
      8  CE        34.4030  -45.4120   41.2450 C.3    22  LYS22       0.1093
      9  NZ        33.1620  -45.4570   42.0720 N.3    22  LYS22      -0.1314
     10  N         33.9000  -40.9960   43.1000 N.am   23  ASN23      -0.1974
     11  CA        32.8530  -40.9850   44.1080 C.3    23  ASN23       0.1688
     12  C         32.3260  -39.6080   44.5040 C.2    23  ASN23       0.2292
     13  O         31.5420  -39.4710   45.4440 O.2    23  ASN23      -0.2864
     14  CB        33.3170  -41.7880   45.3220 C.3    23  ASN23       0.1181
     15  CG        33.4790  -43.2640   44.9930 C.2    23  ASN23       0.2629
     16  OD1       33.0230  -43.7170   43.9420 O.2    23  ASN23      -0.2716
     17  ND2       34.1150  -44.0210   45.8840 N.am   23  ASN23      -0.0877
     18  N         30.1860  -38.8570   40.5090 N.3    26  LEU26      -0.1245
     19  CA        28.9570  -39.6380   40.3800 C.3    26  LEU26       0.1561
     20  C         27.7890  -39.0180   41.1370 C.2    26  LEU26       0.2260
     21  O         26.7760  -38.6820   40.5310 O.2    26  LEU26      -0.2867
     22  CB        29.1690  -41.0820   40.8420 C.3    26  LEU26       0.0270
     23  CG        30.0600  -41.9460   39.9490 C.3    26  LEU26       0.0019
     24  CD1       30.1150  -43.3570   40.5160 C.3    26  LEU26       0.0001
     25  CD2       29.5170  -41.9600   38.5160 C.3    26  LEU26       0.0001
     26  N         25.3430  -49.8170   40.4770 N.3    93  ARG93      -0.1231
     27  CA        24.5270  -49.6480   41.6680 C.3    93  ARG93       0.1694
     28  C         24.4660  -48.2090   42.1730 C.2    93  ARG93       0.2591
     29  O         23.5370  -47.8400   42.8850 O.2    93  ARG93      -0.2718
     30  CB        25.0290  -50.5670   42.7890 C.3    93  ARG93       0.0321
     31  CG        26.4860  -50.3660   43.1560 C.3    93  ARG93       0.0489
     32  CD        26.7480  -50.8300   44.5720 C.3    93  ARG93       0.2205
     33  NE        25.9650  -50.0550   45.5320 N.pl3  93  ARG93      -0.0865
     34  CZ        26.1340  -48.7570   45.7690 C.cat  93  ARG93       0.5346
     35  NH1       27.0730  -48.0740   45.1190 N.pl3  93  ARG93       0.1354
     36  NH2       25.3490  -48.1350   46.6420 N.pl3  93  ARG93       0.1354
     37  N         25.4460  -47.3930   41.8010 N.am   94  ALA94      -0.1980
     38  CA        25.4650  -46.0020   42.2380 C.3    94  ALA94       0.1597
     39  C         24.2920  -45.1880   41.6730 C.2    94  ALA94       0.2287
     40  O         23.9360  -44.1370   42.2170 O.2    94  ALA94      -0.2864
     41  CB        26.7920  -45.3550   41.8510 C.3    94  ALA94       0.0319
     42  N         21.2500  -43.2550   43.2410 N.3    97  TRP97      -0.1241
     43  CA        21.2160  -41.8330   43.5770 C.3    97  TRP97       0.1605
     44  C         20.2930  -41.0260   42.6690 C.2    97  TRP97       0.2264
     45  O         20.1170  -39.8200   42.8690 O.2    97  TRP97      -0.2867
     46  CB        22.6260  -41.2280   43.5230 C.3    97  TRP97       0.0550
     47  CG        23.4970  -41.5440   44.7190 C.ar   97  TRP97       0.0003
     48  CD1       23.1090  -41.5810   46.0350 C.ar   97  TRP97       0.0946
     49  CD2       24.9150  -41.7750   44.7140 C.ar   97  TRP97       0.0152
     50  NE1       24.1980  -41.8160   46.8430 N.ar   97  TRP97      -0.2442
     51  CE2       25.3170  -41.9390   46.0590 C.ar   97  TRP97       0.0810
     52  CE3       25.8830  -41.8580   43.7050 C.ar   97  TRP97       0.0012
     53  CZ2       26.6510  -42.1800   46.4200 C.ar   97  TRP97       0.0191
     54  CZ3       27.2150  -42.0990   44.0650 C.ar   97  TRP97       0.0001
     55  CH2       27.5810  -42.2570   45.4140 C.ar   97  TRP97       0.0015
     56  N         27.1690  -57.5080   50.6820 N.3   121  ALA121     -0.1231
     57  CA        25.7760  -57.1030   50.5140 C.3   121  ALA121      0.1694
     58  C         25.7220  -55.5910   50.2820 C.2   121  ALA121      0.2592
     59  O         26.4130  -54.8280   50.9580 O.2   121  ALA121     -0.2718
     60  CB        24.9640  -57.4750   51.7590 C.3   121  ALA121      0.0304
     61  N         24.9070  -55.1590   49.3280 N.am  122  ARG122     -0.1966
     62  CA        24.7850  -53.7350   49.0290 C.3   122  ARG122      0.1714
     63  C         23.3170  -53.3000   48.9810 C.2   122  ARG122      0.2458
     64  O         22.8710  -52.7120   47.9960 O.2   122  ARG122     -0.2730
     65  CB        25.4480  -53.4230   47.6830 C.3   122  ARG122      0.0347
     66  CG        26.8840  -53.9210   47.5490 C.3   122  ARG122      0.0492
     67  CD        27.8280  -53.2270   48.5240 C.3   122  ARG122      0.2205
     68  NE        28.0970  -51.8290   48.1890 N.pl3 122  ARG122     -0.0865
     69  CZ        28.8840  -51.4240   47.1970 C.cat 122  ARG122      0.5346
     70  NH1       29.4940  -52.3100   46.4160 N.pl3 122  ARG122      0.1354
     71  NH2       29.0790  -50.1280   46.9980 N.pl3 122  ARG122      0.1354
     72  N         22.5440  -53.5830   50.0440 N.am  123  PRO123     -0.2716
     73  CA        21.1320  -53.1820   50.0400 C.3   123  PRO123      0.1536
     74  C         21.0040  -51.6580   50.0800 C.2   123  PRO123      0.2598
     75  O         21.9670  -50.9620   50.3970 O.2   123  PRO123     -0.2715
     76  CB        20.5870  -53.8480   51.3010 C.3   123  PRO123      0.0310
     77  CG        21.7580  -53.7460   52.2370 C.3   123  PRO123      0.0237
     78  CD        22.9220  -54.1570   51.3480 C.3   123  PRO123      0.0939
     79  N         19.8180  -51.1460   49.7590 N.am  124  VAL124     -0.1964
     80  CA        19.5820  -49.7040   49.7660 C.3   124  VAL124      0.1727
     81  C         18.4510  -49.3490   50.7190 C.2   124  VAL124      0.2616
     82  O         17.8000  -48.3100   50.5730 O.2   124  VAL124     -0.2715
     83  CB        19.2360  -49.1790   48.3530 C.3   124  VAL124      0.0290
     84  CG1       20.4320  -49.3620   47.4210 C.3   124  VAL124      0.0023
     85  CG2       18.0180  -49.9130   47.8070 C.3   124  VAL124      0.0023
     86  N         18.2360  -50.2170   51.7040 N.am  125  ASP125     -0.1957
     87  CA        17.1870  -50.0330   52.7050 C.3   125  ASP125      0.1840
     88  C         17.2620  -48.6850   53.4230 C.2   125  ASP125      0.2622
     89  O         16.2330  -48.0930   53.7350 O.2   125  ASP125     -0.2715
     90  CB        17.2560  -51.1580   53.7380 C.3   125  ASP125      0.1450
     91  CG        18.5880  -51.1960   54.4590 C.2   125  ASP125      0.3671
     92  OD1       19.6230  -51.3310   53.7750 O.co2 125  ASP125     -0.2456
     93  OD2       18.6040  -51.0880   55.7040 O.co2 125  ASP125     -0.2456
     94  N         18.4720  -48.2040   53.6910 N.am  126  LEU126     -0.1963
     95  CA        18.6440  -46.9190   54.3780 C.3   126  LEU126      0.1728
     96  C         18.2720  -45.7560   53.4600 C.2   126  LEU126      0.2616
     97  O         17.8630  -44.6870   53.9280 O.2   126  LEU126     -0.2715
     98  CB        20.0920  -46.7550   54.8510 C.3   126  LEU126      0.0311
     99  CG        20.6780  -47.8590   55.7380 C.3   126  LEU126      0.0022
    100  CD1       22.1600  -47.5760   55.9720 C.3   126  LEU126      0.0001
    101  CD2       19.9230  -47.9290   57.0550 C.3   126  LEU126      0.0001
    102  N         18.4310  -45.9620   52.1560 N.am  127  HIS127     -0.1973
    103  CA        18.0800  -44.9410   51.1740 C.3   127  HIS127      0.1656
    104  C         16.5580  -44.8090   51.1730 C.2   127  HIS127      0.2291
    105  O         16.0120  -43.7140   51.3280 O.2   127  HIS127     -0.2864
    106  CB        18.5270  -45.3560   49.7650 C.3   127  HIS127      0.0771
    107  CG        20.0080  -45.3420   49.5560 C.ar  127  HIS127      0.0820
    108  ND1       20.6290  -44.4450   48.7140 N.ar  127  HIS127     -0.2267
    109  CD2       20.9860  -46.1520   50.0290 C.ar  127  HIS127      0.1154
    110  CE1       21.9230  -44.7070   48.6690 C.ar  127  HIS127      0.1986
    111  NE2       22.1660  -45.7380   49.4580 N.ar  127  HIS127     -0.2212
    112  N         23.2000  -46.7650   60.5680 N.3   162  LYS162     -0.1231
    113  CA        24.6360  -46.9570   60.5210 C.3   162  LYS162      0.1693
    114  C         25.2570  -45.9620   59.5650 C.2   162  LYS162      0.2592
    115  O         24.5530  -45.2840   58.8180 O.2   162  LYS162     -0.2718
    116  CB        24.9850  -48.3950   60.1260 C.3   162  LYS162      0.0285
    117  CG        24.2080  -48.9690   58.9620 C.3   162  LYS162      0.0035
    118  CD        24.5450  -50.4470   58.8130 C.3   162  LYS162      0.0206
    119  CE        23.6220  -51.1550   57.8320 C.3   162  LYS162      0.1093
    120  NZ        23.9900  -52.5980   57.6730 N.3   162  LYS162     -0.1314
    121  N         26.5770  -45.8610   59.6000 N.am  163  VAL163     -0.1966
    122  CA        27.2760  -44.9270   58.7360 C.3   163  VAL163      0.1727
    123  C         27.2410  -45.3800   57.2760 C.2   163  VAL163      0.2617
    124  O         27.8730  -46.3680   56.8870 O.2   163  VAL163     -0.2715
    125  CB        28.7350  -44.7350   59.2100 C.3   163  VAL163      0.0290
    126  CG1       29.4690  -43.7770   58.2840 C.3   163  VAL163      0.0023
    127  CG2       28.7330  -44.1880   60.6360 C.3   163  VAL163      0.0023
    128  N         26.4910  -44.6430   56.4690 N.am  164  SER164     -0.1936
    129  CA        26.3620  -44.9660   55.0600 C.3   164  SER164      0.2055
    130  C         26.6060  -43.7590   54.1650 C.2   164  SER164      0.2643
    131  O         25.8960  -42.7520   54.2510 O.2   164  SER164     -0.2714
    132  CB        24.9680  -45.5300   54.7850 C.3   164  SER164      0.2130
    133  OG        24.7210  -45.6230   53.3970 O.3   164  SER164     -0.2179
    134  N         27.6110  -43.8700   53.3030 N.am  165  VAL165     -0.1963
    135  CA        27.9410  -42.8030   52.3700 C.3   165  VAL165      0.1727
    136  C         26.8030  -42.6370   51.3650 C.2   165  VAL165      0.2616
    137  O         26.3820  -41.5240   51.0680 O.2   165  VAL165     -0.2715
    138  CB        29.2520  -43.1170   51.6030 C.3   165  VAL165      0.0290
    139  CG1       29.3950  -42.1930   50.3990 C.3   165  VAL165      0.0023
    140  CG2       30.4500  -42.9640   52.5330 C.3   165  VAL165      0.0023
    141  N         26.3060  -43.7550   50.8500 N.am  166  GLY166     -0.1955
    142  CA        25.2350  -43.7110   49.8740 C.3   166  GLY166      0.1869
    143  C         23.9420  -43.1180   50.3960 C.2   166  GLY166      0.2309
    144  O         23.3970  -42.1950   49.7900 O.2   166  GLY166     -0.2863
    145  N         32.6540  -38.6610   54.6920 N.3   190  GLU190     -0.1245
    146  CA        33.5050  -38.6790   53.4990 C.3   190  GLU190      0.1567
    147  C         33.6220  -37.3470   52.7500 C.2   190  GLU190      0.2260
    148  O         32.6520  -36.5960   52.6310 O.2   190  GLU190     -0.2867
    149  CB        33.0170  -39.7450   52.5190 C.3   190  GLU190      0.0388
    150  CG        33.5730  -41.1450   52.7480 C.3   190  GLU190      0.1160
    151  CD        33.2140  -41.7340   54.1030 C.2   190  GLU190      0.3649
    152  OE1       32.2720  -41.2360   54.7590 O.co2 190  GLU190     -0.2457
    153  OE2       33.8760  -42.7170   54.5030 O.co2 190  GLU190     -0.2457
    154  N         41.0960  -38.8280   46.4010 N.3   234  ARG234     -0.1245
    155  CA        41.9780  -39.2460   47.4900 C.3   234  ARG234      0.1563
    156  C         42.4370  -40.6920   47.3460 C.2   234  ARG234      0.2260
    157  O         43.5510  -41.0360   47.7370 O.2   234  ARG234     -0.2867
    158  CB        41.2760  -39.0590   48.8430 C.3   234  ARG234      0.0307
    159  CG        40.0130  -39.8860   49.0240 C.3   234  ARG234      0.0489
    160  CD        39.1010  -39.2620   50.0700 C.3   234  ARG234      0.2205
    161  NE        37.7950  -39.9200   50.1220 N.pl3 234  ARG234     -0.0865
    162  CZ        37.5550  -41.0690   50.7490 C.cat 234  ARG234      0.5346
    163  NH1       38.5340  -41.6970   51.3890 N.pl3 234  ARG234      0.1354
    164  NH2       36.3360  -41.5940   50.7280 N.pl3 234  ARG234      0.1354
    165  N         38.2550  -48.0970   53.2840 N.3   306  THR306     -0.1203
    166  CA        38.1740  -49.4620   52.7850 C.3   306  THR306      0.1994
    167  C         38.6410  -49.4960   51.3380 C.2   306  THR306      0.2617
    168  O         39.1340  -50.5230   50.8660 O.2   306  THR306     -0.2717
    169  CB        36.7230  -50.0460   52.8880 C.3   306  THR306      0.1784
    170  OG1       36.6920  -51.3550   52.3020 O.3   306  THR306     -0.2211
    171  CG2       35.7090  -49.1460   52.1810 C.3   306  THR306      0.0376
    172  N         38.5070  -48.3700   50.6360 N.am  307  ASP307     -0.1973
    173  CA        38.9380  -48.3150   49.2390 C.3   307  ASP307      0.1709
    174  C         40.4580  -48.2910   49.0580 C.2   307  ASP307      0.2293
    175  O         40.9520  -48.2530   47.9300 O.2   307  ASP307     -0.2864
    176  CB        38.2830  -47.1310   48.5170 C.3   307  ASP307      0.1436
    177  CG        36.8250  -47.4180   48.1220 C.2   307  ASP307      0.3671
    178  OD1       36.1210  -46.5080   47.6340 O.co2 307  ASP307     -0.2456
    179  OD2       36.3840  -48.5660   48.2870 O.co2 307  ASP307     -0.2456
    180  N         34.1120  -52.8440   56.8310 N.3   329  ILE329     -0.1231
    181  CA        33.0260  -52.3250   56.0140 C.3   329  ILE329      0.1692
    182  C         32.2860  -53.3870   55.2050 C.2   329  ILE329      0.2592
    183  O         31.0640  -53.4810   55.2800 O.2   329  ILE329     -0.2718
    184  CB        33.5320  -51.2320   55.0480 C.3   329  ILE329      0.0266
    185  CG1       34.3920  -50.2180   55.8080 C.3   329  ILE329      0.0019
    186  CG2       32.3350  -50.5240   54.3970 C.3   329  ILE329      0.0020
    187  CD1       33.6280  -49.4130   56.8310 C.3   329  ILE329      0.0001
    188  N         33.0220  -54.1780   54.4310 N.am  330  PHE330     -0.1962
    189  CA        32.4200  -55.2210   53.6070 C.3   330  PHE330      0.1771
    190  C         32.8690  -56.5930   54.0760 C.2   330  PHE330      0.2619
    191  O         33.9290  -56.7260   54.6880 O.2   330  PHE330     -0.2715
    192  CB        32.7820  -54.9950   52.1370 C.3   330  PHE330      0.0574
    193  CG        32.1940  -53.7370   51.5690 C.ar  330  PHE330     -0.0200
    194  CD1       30.8290  -53.6470   51.3170 C.ar  330  PHE330     -0.0042
    195  CD2       32.9910  -52.6210   51.3400 C.ar  330  PHE330     -0.0042
    196  CE1       30.2670  -52.4680   50.8500 C.ar  330  PHE330     -0.0003
    197  CE2       32.4350  -51.4330   50.8710 C.ar  330  PHE330     -0.0003
    198  CZ        31.0700  -51.3590   50.6270 C.ar  330  PHE330     -0.0000
    199  N         32.0810  -57.6180   53.7710 N.am  331  GLU331     -0.1977
    200  CA        32.3980  -58.9580   54.2400 C.3   331  GLU331      0.1602
    201  C         33.1870  -59.8940   53.3290 C.2   331  GLU331      0.2287
    202  O         33.5960  -60.9680   53.7630 O.2   331  GLU331     -0.2864
    203  CB        31.1110  -59.6560   54.7110 C.3   331  GLU331      0.0415
    204  CG        30.0010  -59.8060   53.6690 C.3   331  GLU331      0.1163
    205  CD        29.1810  -58.5330   53.4400 C.2   331  GLU331      0.3649
    206  OE1       28.0990  -58.6310   52.8250 O.co2 331  GLU331     -0.2457
    207  OE2       29.6080  -57.4380   53.8570 O.co2 331  GLU331     -0.2457
    208  N         35.8560  -58.6440   50.9990 N.3   333  ARG333     -0.1245
    209  CA        36.7780  -57.7980   50.2740 C.3   333  ARG333      0.1563
    210  C         38.2300  -58.2130   50.4360 C.2   333  ARG333      0.2260
    211  O         39.1030  -57.3850   50.6900 O.2   333  ARG333     -0.2867
    212  CB        36.5940  -56.3340   50.6750 C.3   333  ARG333      0.0307
    213  CG        37.0510  -55.3900   49.5790 C.3   333  ARG333      0.0489
    214  CD        36.7010  -53.9460   49.8680 C.3   333  ARG333      0.2205
    215  NE        36.9050  -53.1320   48.6750 N.pl3 333  ARG333     -0.0865
    216  CZ        36.5870  -51.8460   48.5740 C.cat 333  ARG333      0.5346
    217  NH1       36.0460  -51.2060   49.6060 N.pl3 333  ARG333      0.1354
    218  NH2       36.7970  -51.2050   47.4290 N.pl3 333  ARG333      0.1354
    219  N         39.3070  -52.0000   43.1950 N.3   373  ARG373     -0.1245
    220  CA        40.5210  -51.7350   43.9430 C.3   373  ARG373      0.1563
    221  C         41.5040  -52.9120   43.8990 C.2   373  ARG373      0.2260
    222  O         42.7290  -52.7300   43.9770 O.2   373  ARG373     -0.2867
    223  CB        40.1310  -51.3270   45.3620 C.3   373  ARG373      0.0307
    224  CG        39.2020  -50.0930   45.3420 C.3   373  ARG373      0.0489
    225  CD        39.9970  -48.8120   45.1170 C.3   373  ARG373      0.2205
    226  NE        39.3620  -47.7730   44.2940 N.pl3 373  ARG373     -0.0865
    227  CZ        38.1210  -47.3130   44.4350 C.cat 373  ARG373      0.5346
    228  NH1       37.3160  -47.8000   45.3690 N.pl3 373  ARG373      0.1354
    229  NH2       37.6940  -46.3280   43.6560 N.pl3 373  ARG373      0.1354
    230  N         36.9310  -48.4890   35.7550 N.3   399  ARG399     -0.1245
    231  CA        35.7730  -47.9960   36.4900 C.3   399  ARG399      0.1563
    232  C         36.1620  -46.8610   37.4290 C.2   399  ARG399      0.2260
    233  O         35.3220  -46.0350   37.7880 O.2   399  ARG399     -0.2867
    234  CB        35.1380  -49.1130   37.3210 C.3   399  ARG399      0.0307
    235  CG        34.3080  -50.1170   36.5390 C.3   399  ARG399      0.0489
    236  CD        33.4620  -50.9340   37.5050 C.3   399  ARG399      0.2205
    237  NE        32.7370  -50.0600   38.4230 N.pl3 399  ARG399     -0.0865
    238  CZ        32.8670  -50.0830   39.7480 C.cat 399  ARG399      0.5346
    239  NH1       33.6930  -50.9440   40.3270 N.pl3 399  ARG399      0.1354
    240  NH2       32.1820  -49.2280   40.4950 N.pl3 399  ARG399      0.1354
@<TRIPOS>BOND
     1   230   231    1
     2   231   234    1
     3   231   232    1
     4   235   234    1
     5   235   236    1
     6   232   233    2
     7   236   237    1
     8   237   238    2
     9    25    23    1
    10   238   239    1
    11   238   240    1
    12    23    24    1
    13    23    22    1
    14     7     6    1
    15     7     8    1
    16     6     5    1
    17    19    18    1
    18    19    22    1
    19    19    20    1
    20    26    27    1
    21    21    20    2
    22     5     2    1
    23     2     1    1
    24     2     3    1
    25     8     9    1
    26     4     3    2
    27    27    28    1
    28    27    30    1
    29    39    40    2
    30    39    38    1
    31    37    28   am
    32    37    38    1
    33     3    10   am
    34    41    38    1
    35    28    29    2
    36    44    45    2
    37    44    43    1
    38    30    31    1
    39    10    11    1
    40    31    32    1
    41   219   220    1
    42    42    43    1
    43    46    43    1
    44    46    47    1
    45   229   227    1
    46    52    54   ar
    47    52    49   ar
    48   221   220    1
    49   221   222    2
    50    16    15    2
    51   220   223    1
    52    54    55   ar
    53    11    12    1
    54    11    14    1
    55   226   227    2
    56   226   225    1
    57   227   228    1
    58    12    13    2
    59    32    33    1
    60    49    47   ar
    61    49    51   ar
    62    47    48   ar
    63    15    14    1
    64    15    17   am
    65   225   224    1
    66    35    34    1
    67   224   223    1
    68    55    53   ar
    69    33    34    2
    70    34    36    1
    71    48    50   ar
    72    51    53   ar
    73    51    50   ar
    74   154   155    1
    75    70    69    1
    76    71    69    1
    77    69    68    2
    78   156   155    1
    79   156   157    2
    80    84    83    1
    81   218   216    1
    82   155   158    1
    83    66    65    1
    84    66    67    1
    85   178   177   ar
    86    65    62    1
    87    85    83    1
    88   175   174    2
    89    64    63    2
    90   177   179   ar
    91   177   176    1
    92    68    67    1
    93    83    80    1
    94   176   173    1
    95   216   215    2
    96   216   217    1
    97   110   108   ar
    98   110   111   ar
    99   215   214    1
   100   108   107   ar
   101   158   159    1
   102    63    62    1
   103    63    72   am
   104   159   160    1
   105    62    61    1
   106   174   173    1
   107   173   172    1
   108    61    58   am
   109   111   109   ar
   110   107   106    1
   111   107   109   ar
   112   213   214    1
   113   213   212    1
   114    79    80    1
   115    79    74   am
   116   106   103    1
   117    80    81    1
   118   144   143    2
   119   142   143    1
   120   142   141    1
   121    73    72    1
   122    73    74    1
   123    73    76    1
   124    72    78    1
   125   160   161    1
   126    74    75    2
   127   161   162    2
   128   209   210    1
   129   209   212    1
   130   209   208    1
   131    58    57    1
   132    58    59    2
   133   139   138    1
   134   210   211    2
   135    57    56    1
   136    57    60    1
   137    82    81    2
   138   198   196   ar
   139   198   197   ar
   140   172   167   am
   141    81    86   am
   142   164   162    1
   143   162   163    1
   144   141   136   am
   145   196   194   ar
   146   168   167    2
   147   197   195   ar
   148   137   136    2
   149   104   103    1
   150   104   105    2
   151   103   102    1
   152    76    77    1
   153   194   193   ar
   154   167   166    1
   155   195   193   ar
   156    78    77    1
   157   136   135    1
   158   193   192    1
   159   138   135    1
   160   138   140    1
   161    86    87    1
   162   192   189    1
   163   102    96   am
   164   171   169    1
   165   170   169    1
   166   135   134    1
   167   149   150    1
   168   149   146    1
   169   148   147    2
   170    87    88    1
   171    87    90    1
   172   150   151    1
   173   147   146    1
   174   166   169    1
   175   166   165    1
   176   206   205   ar
   177   134   130   am
   178   201   202    2
   179   201   200    1
   180   133   132    1
   181    88    94   am
   182    88    89    2
   183   205   204    1
   184   205   207   ar
   185    96    97    2
   186    96    95    1
   187   146   145    1
   188   189   190    1
   189   189   188    1
   190   204   203    1
   191    94    95    1
   192    90    91    1
   193   199   190   am
   194   199   200    1
   195    92    91   ar
   196   190   191    2
   197   151   153   ar
   198   151   152   ar
   199   130   131    2
   200   130   129    1
   201   200   203    1
   202    95    98    1
   203   186   184    1
   204   188   182   am
   205    91    93   ar
   206   132   129    1
   207    98    99    1
   208   184   185    1
   209   184   181    1
   210   129   128    1
   211   182   183    2
   212   182   181    1
   213    99   100    1
   214    99   101    1
   215   185   187    1
   216   181   180    1
   217   128   123   am
   218   124   123    2
   219   123   122    1
   220   120   119    1
   221   119   118    1
   222   126   125    1
   223   122   125    1
   224   122   121    1
   225   118   117    1
   226   115   114    2
   227   117   116    1
   228   125   127    1
   229   114   121   am
   230   114   113    1
   231   116   113    1
   232   113   112    1
