@<TRIPOS>MOLECULE
tmp/2rl5A00.pdb
 225 215 0 0 0
SMALL
GASTEIGER

@<TRIPOS>ATOM
      1  N         53.2170   54.8400   17.3040 N.3    26  LEU26      -0.1231
      2  CA        53.4540   54.0420   16.1100 C.3    26  LEU26       0.1693
      3  C         52.8470   52.6570   16.3340 C.2    26  LEU26       0.2592
      4  O         52.5410   51.9370   15.3810 O.2    26  LEU26      -0.2718
      5  CB        54.9560   53.9350   15.8460 C.3    26  LEU26       0.0284
      6  CG        55.6610   55.2610   15.5560 C.3    26  LEU26       0.0019
      7  CD1       57.1660   55.0710   15.5690 C.3    26  LEU26       0.0001
      8  CD2       55.1920   55.7950   14.2180 C.3    26  LEU26       0.0001
      9  N         52.6660   52.3060   17.6060 N.am   27  GLY27      -0.1957
     10  CA        52.0940   51.0180   17.9710 C.3    27  GLY27       0.1869
     11  C         52.2300   50.7100   19.4570 C.2    27  GLY27       0.2309
     12  O         53.1010   51.2610   20.1360 O.2    27  GLY27      -0.2863
     13  N         55.5060   51.9230   21.3770 N.3    31  VAL31      -0.1245
     14  CA        56.4960   52.6880   20.6270 C.3    31  VAL31       0.1561
     15  C         55.8980   53.9970   20.1370 C.2    31  VAL31       0.2260
     16  O         54.8120   54.0290   19.5630 O.2    31  VAL31      -0.2867
     17  CB        57.0300   51.8930   19.4260 C.3    31  VAL31       0.0252
     18  CG1       58.1390   52.6710   18.7370 C.3    31  VAL31       0.0019
     19  CG2       57.5390   50.5460   19.8940 C.3    31  VAL31       0.0019
     20  N         62.5550   56.5010   17.4700 N.3    49  ALA49      -0.1245
     21  CA        61.4200   55.7220   17.9420 C.3    49  ALA49       0.1562
     22  C         61.6890   55.5050   19.4250 C.2    49  ALA49       0.2260
     23  O         62.8110   55.1820   19.8200 O.2    49  ALA49      -0.2867
     24  CB        61.3380   54.3890   17.2040 C.3    49  ALA49       0.0290
     25  N         60.4180   53.5600   22.9670 N.3    51  LYS51      -0.1245
     26  CA        59.5870   52.5480   23.5930 C.3    51  LYS51       0.1561
     27  C         59.5730   52.8360   25.0900 C.2    51  LYS51       0.2260
     28  O         60.6270   52.9390   25.7240 O.2    51  LYS51      -0.2867
     29  CB        60.1490   51.1530   23.3290 C.3    51  LYS51       0.0271
     30  CG        59.2340   50.0470   23.7980 C.3    51  LYS51       0.0035
     31  CD        59.7700   48.6920   23.4360 C.3    51  LYS51       0.0206
     32  CE        58.7730   47.6220   23.7960 C.3    51  LYS51       0.1093
     33  NZ        59.3540   46.2750   23.5690 N.3    51  LYS51      -0.1314
     34  N         65.1940   44.2490   28.0240 N.3    68  GLU68      -0.1245
     35  CA        65.3440   44.4330   26.5860 C.3    68  GLU68       0.1567
     36  C         66.4420   45.4550   26.2900 C.2    68  GLU68       0.2260
     37  O         67.2330   45.2730   25.3670 O.2    68  GLU68      -0.2867
     38  CB        64.0210   44.8860   25.9710 C.3    68  GLU68       0.0388
     39  CG        63.9780   44.7620   24.4660 C.3    68  GLU68       0.1160
     40  CD        62.5940   45.0170   23.8990 C.2    68  GLU68       0.3649
     41  OE1       62.3700   44.6710   22.7180 O.co2  68  GLU68      -0.2457
     42  OE2       61.7320   45.5630   24.6270 O.co2  68  GLU68      -0.2457
     43  N         69.7470   43.8340   26.8400 N.3    71  ILE71      -0.1231
     44  CA        70.0510   42.8970   25.7720 C.3    71  ILE71       0.1692
     45  C         70.5350   43.6520   24.5350 C.2    71  ILE71       0.2591
     46  O         71.5050   43.2460   23.8980 O.2    71  ILE71      -0.2718
     47  CB        68.8210   42.0220   25.4500 C.3    71  ILE71       0.0266
     48  CG1       68.6630   40.9710   26.5560 C.3    71  ILE71       0.0019
     49  CG2       68.9720   41.3630   24.0850 C.3    71  ILE71       0.0020
     50  CD1       67.4200   40.1190   26.4460 C.3    71  ILE71       0.0001
     51  N         69.8760   44.7570   24.2010 N.am   72  LEU72      -0.1980
     52  CA        70.2990   45.5450   23.0500 C.3    72  LEU72       0.1596
     53  C         71.7140   46.0790   23.2710 C.2    72  LEU72       0.2287
     54  O         72.5370   46.0610   22.3560 O.2    72  LEU72      -0.2864
     55  CB        69.3350   46.7120   22.7990 C.3    72  LEU72       0.0297
     56  CG        68.0040   46.3170   22.1620 C.3    72  LEU72       0.0022
     57  CD1       67.0340   47.4790   22.2090 C.3    72  LEU72       0.0001
     58  CD2       68.2470   45.8680   20.7320 C.3    72  LEU72       0.0001
     59  N         74.1460   43.1260   22.8580 N.3    75  ILE75      -0.1245
     60  CA        74.3000   42.7040   21.4730 C.3    75  ILE75       0.1561
     61  C         75.2750   43.6130   20.7340 C.2    75  ILE75       0.2260
     62  O         76.1380   43.1410   19.9910 O.2    75  ILE75      -0.2867
     63  CB        72.9410   42.7100   20.7350 C.3    75  ILE75       0.0252
     64  CG1       72.0470   41.6010   21.2890 C.3    75  ILE75       0.0019
     65  CG2       73.1470   42.5190   19.2480 C.3    75  ILE75       0.0019
     66  CD1       70.6580   41.6010   20.7070 C.3    75  ILE75       0.0001
     67  N         70.6520   45.7380   12.3960 N.3    81  VAL81      -0.1231
     68  CA        69.9330   45.4580   13.6260 C.3    81  VAL81       0.1692
     69  C         69.5150   46.8350   14.1210 C.2    81  VAL81       0.2591
     70  O         70.3740   47.6860   14.3310 O.2    81  VAL81      -0.2718
     71  CB        70.8390   44.7800   14.6680 C.3    81  VAL81       0.0266
     72  CG1       70.0770   44.5780   15.9630 C.3    81  VAL81       0.0020
     73  CG2       71.3280   43.4460   14.1290 C.3    81  VAL81       0.0020
     74  N         68.2110   47.0650   14.2770 N.am   82  VAL82      -0.1980
     75  CA        67.7080   48.3630   14.7400 C.3    82  VAL82       0.1595
     76  C         68.6770   48.9580   15.7760 C.2    82  VAL82       0.2287
     77  O         68.9440   48.3610   16.8130 O.2    82  VAL82      -0.2864
     78  CB        66.2670   48.2260   15.3260 C.3    82  VAL82       0.0276
     79  CG1       66.2900   47.4530   16.6320 C.3    82  VAL82       0.0022
     80  CG2       65.6520   49.5930   15.5150 C.3    82  VAL82       0.0022
     81  N         63.3240   53.6160   26.0240 N.3    97  VAL97      -0.1245
     82  CA        64.3470   53.0470   25.1540 C.3    97  VAL97       0.1561
     83  C         64.2520   53.7630   23.8110 C.2    97  VAL97       0.2260
     84  O         63.1880   53.7980   23.1950 O.2    97  VAL97      -0.2867
     85  CB        64.1410   51.5400   24.9660 C.3    97  VAL97       0.0252
     86  CG1       65.2520   50.9700   24.1040 C.3    97  VAL97       0.0019
     87  CG2       64.1170   50.8590   26.3280 C.3    97  VAL97       0.0019
     88  N         65.5750   54.2470   19.8800 N.3    99  THR99      -0.1203
     89  CA        66.2450   53.6210   18.7500 C.3    99  THR99       0.1994
     90  C         66.1430   54.5360   17.5480 C.2    99  THR99       0.2618
     91  O         65.4360   55.5460   17.5770 O.2    99  THR99      -0.2717
     92  CB        65.5920   52.2870   18.3550 C.3    99  THR99       0.1784
     93  OG1       64.3360   52.5470   17.7140 O.3    99  THR99      -0.2211
     94  CG2       65.3620   51.4170   19.5820 C.3    99  THR99       0.0376
     95  N         66.8520   54.1780   16.4870 N.am  100  GLU100     -0.1965
     96  CA        66.7910   54.9680   15.2770 C.3   100  GLU100      0.1733
     97  C         65.3740   54.7650   14.7620 C.2   100  GLU100      0.2616
     98  O         64.6850   53.8280   15.1650 O.2   100  GLU100     -0.2715
     99  CB        67.7970   54.4610   14.2520 C.3   100  GLU100      0.0429
    100  CG        67.4120   53.1420   13.6420 C.3   100  GLU100      0.1163
    101  CD        68.4880   52.5860   12.7350 C.2   100  GLU100      0.3649
    102  OE1       68.8790   53.2860   11.7690 O.co2 100  GLU100     -0.2457
    103  OE2       68.9390   51.4470   12.9920 O.co2 100  GLU100     -0.2457
    104  N         64.9330   55.6510   13.8840 N.am  101  PHE101     -0.1960
    105  CA        63.5970   55.5520   13.3240 C.3   101  PHE101      0.1771
    106  C         63.7070   54.9720   11.9120 C.2   101  PHE101      0.2620
    107  O         64.5880   55.3680   11.1410 O.2   101  PHE101     -0.2715
    108  CB        62.9670   56.9400   13.2860 C.3   101  PHE101      0.0574
    109  CG        61.5970   56.9750   12.6780 C.ar  101  PHE101     -0.0200
    110  CD1       60.5200   56.3910   13.3280 C.ar  101  PHE101     -0.0042
    111  CD2       61.3770   57.6350   11.4760 C.ar  101  PHE101     -0.0042
    112  CE1       59.2480   56.4680   12.7940 C.ar  101  PHE101     -0.0003
    113  CE2       60.1070   57.7160   10.9350 C.ar  101  PHE101     -0.0003
    114  CZ        59.0390   57.1340   11.5940 C.ar  101  PHE101     -0.0000
    115  N         62.8280   54.0260   11.5850 N.am  102  CYS102     -0.1954
    116  CA        62.8340   53.4060   10.2660 C.3   102  CYS102      0.1843
    117  C         61.5930   53.8250    9.5010 C.2   102  CYS102      0.2625
    118  O         60.5260   53.2330    9.6280 O.2   102  CYS102     -0.2714
    119  CB        62.9080   51.8930   10.3980 C.3   102  CYS102      0.0997
    120  SG        64.4600   51.3410   11.1260 S.3   102  CYS102     -0.0797
    121  N         61.7670   54.8670    8.7020 N.am  103  LYS103     -0.1963
    122  CA        60.7180   55.4780    7.9020 C.3   103  LYS103      0.1728
    123  C         59.6170   54.5940    7.2980 C.2   103  LYS103      0.2616
    124  O         58.4390   54.9160    7.4170 O.2   103  LYS103     -0.2715
    125  CB        61.3750   56.3000    6.7900 C.3   103  LYS103      0.0311
    126  CG        60.4440   57.2530    6.0710 C.3   103  LYS103      0.0038
    127  CD        61.1780   58.0200    4.9710 C.3   103  LYS103      0.0206
    128  CE        60.2590   59.0470    4.3040 C.3   103  LYS103      0.1093
    129  NZ        60.9240   59.7980    3.1910 N.3   103  LYS103     -0.1314
    130  N         59.9780   53.4830    6.6660 N.am  104  PHE104     -0.1960
    131  CA        58.9640   52.6600    6.0100 C.3   104  PHE104      0.1771
    132  C         58.2710   51.5590    6.7900 C.2   104  PHE104      0.2620
    133  O         57.3880   50.8940    6.2540 O.2   104  PHE104     -0.2715
    134  CB        59.5330   52.0700    4.7190 C.3   104  PHE104      0.0574
    135  CG        60.0380   53.1040    3.7630 C.ar  104  PHE104     -0.0200
    136  CD1       61.3080   53.6430    3.9120 C.ar  104  PHE104     -0.0042
    137  CD2       59.2270   53.5740    2.7400 C.ar  104  PHE104     -0.0042
    138  CE1       61.7610   54.6330    3.0600 C.ar  104  PHE104     -0.0003
    139  CE2       59.6740   54.5640    1.8840 C.ar  104  PHE104     -0.0003
    140  CZ        60.9450   55.0940    2.0460 C.ar  104  PHE104     -0.0000
    141  N         58.6630   51.3480    8.0380 N.am  105  GLY105     -0.1940
    142  CA        58.0060   50.3280    8.8350 C.3   105  GLY105      0.2014
    143  C         58.3870   48.8930    8.5250 C.2   105  GLY105      0.2638
    144  O         59.4320   48.6340    7.9250 O.2   105  GLY105     -0.2714
    145  N         57.5340   47.9550    8.9320 N.am  106  ASN106     -0.1972
    146  CA        57.8100   46.5440    8.7200 C.3   106  ASN106      0.1688
    147  C         57.8330   46.1680    7.2400 C.2   106  ASN106      0.2292
    148  O         57.0310   46.6490    6.4390 O.2   106  ASN106     -0.2864
    149  CB        56.8070   45.6790    9.4930 C.3   106  ASN106      0.1181
    150  CG        55.5020   45.5110    8.7690 C.2   106  ASN106      0.2629
    151  OD1       55.3890   44.6940    7.8560 O.2   106  ASN106     -0.2716
    152  ND2       54.5040   46.2900    9.1620 N.am  106  ASN106     -0.0877
    153  N         73.9760   38.5380   15.1170 N.3   152  LEU152     -0.1245
    154  CA        73.3220   38.1280   16.3490 C.3   152  LEU152      0.1561
    155  C         73.8900   36.7930   16.8040 C.2   152  LEU152      0.2260
    156  O         74.2040   36.6180   17.9780 O.2   152  LEU152     -0.2867
    157  CB        71.8080   38.0180   16.1560 C.3   152  LEU152      0.0270
    158  CG        71.0590   39.3550   16.2010 C.3   152  LEU152      0.0019
    159  CD1       69.5700   39.1330   16.0070 C.3   152  LEU152      0.0001
    160  CD2       71.3110   40.0280   17.5320 C.3   152  LEU152      0.0001
    161  N         73.1010   35.1910   20.5500 N.3   157  CYS157     -0.1221
    162  CA        71.7060   35.5150   20.7740 C.3   157  CYS157      0.1808
    163  C         70.8300   34.8620   19.7210 C.2   157  CYS157      0.2601
    164  O         71.2000   34.7810   18.5560 O.2   157  CYS157     -0.2717
    165  CB        71.5100   37.0310   20.7800 C.3   157  CYS157      0.0970
    166  SG        72.2030   37.8110   22.2740 S.3   157  CYS157     -0.0800
    167  N         69.6740   34.3740   20.1560 N.am  158  ILE158     -0.1965
    168  CA        68.7180   33.7140   19.2780 C.3   158  ILE158      0.1727
    169  C         67.5060   34.6270   19.1580 C.2   158  ILE158      0.2616
    170  O         66.9190   35.0190   20.1680 O.2   158  ILE158     -0.2715
    171  CB        68.2810   32.3590   19.8750 C.3   158  ILE158      0.0290
    172  CG1       69.4660   31.3930   19.8780 C.3   158  ILE158      0.0022
    173  CG2       67.1190   31.7820   19.0860 C.3   158  ILE158      0.0023
    174  CD1       69.2070   30.1120   20.6490 C.3   158  ILE158      0.0001
    175  N         67.1290   34.9730   17.9310 N.am  159  HIS159     -0.1973
    176  CA        65.9870   35.8630   17.7500 C.3   159  HIS159      0.1656
    177  C         64.6870   35.2190   18.2270 C.2   159  HIS159      0.2291
    178  O         63.9370   35.8300   18.9870 O.2   159  HIS159     -0.2864
    179  CB        65.8650   36.3040   16.2850 C.3   159  HIS159      0.0771
    180  CG        64.8990   37.4290   16.0820 C.ar  159  HIS159      0.0820
    181  ND1       63.5370   37.2360   15.9920 N.ar  159  HIS159     -0.2267
    182  CD2       65.0910   38.7680   16.0280 C.ar  159  HIS159      0.1154
    183  CE1       62.9330   38.4070   15.8940 C.ar  159  HIS159      0.1986
    184  NE2       63.8530   39.3530   15.9150 N.ar  159  HIS159     -0.2212
    185  N         62.4440   45.9130    9.6660 N.3   168  LEU168     -0.1245
    186  CA        62.0920   47.3020    9.3980 C.3   168  LEU168      0.1561
    187  C         62.8930   47.8470    8.2220 C.2   168  LEU168      0.2260
    188  O         64.0760   47.5300    8.0530 O.2   168  LEU168     -0.2867
    189  CB        62.3580   48.1680   10.6280 C.3   168  LEU168      0.0270
    190  CG        61.5450   47.8530   11.8800 C.3   168  LEU168      0.0019
    191  CD1       61.9510   48.7980   12.9910 C.3   168  LEU168      0.0001
    192  CD2       60.0690   47.9840   11.5780 C.3   168  LEU168      0.0001
    193  N         66.8070   44.4060   11.5760 N.3   177  ILE177     -0.1231
    194  CA        66.1270   43.3250   12.2930 C.3   177  ILE177      0.1692
    195  C         65.6440   43.8850   13.6220 C.2   177  ILE177      0.2592
    196  O         66.3850   44.5920   14.3070 O.2   177  ILE177     -0.2718
    197  CB        67.0760   42.1420   12.6240 C.3   177  ILE177      0.0266
    198  CG1       67.5040   41.4090   11.3530 C.3   177  ILE177      0.0019
    199  CG2       66.3810   41.1770   13.5750 C.3   177  ILE177      0.0020
    200  CD1       68.6530   40.4380   11.5800 C.3   177  ILE177      0.0001
    201  N         64.4100   43.5720   13.9930 N.am  178  CYS178     -0.1956
    202  CA        63.8720   44.0550   15.2580 C.3   178  CYS178      0.1843
    203  C         62.9480   43.0100   15.8530 C.2   178  CYS178      0.2625
    204  O         62.8230   41.9100   15.3200 O.2   178  CYS178     -0.2714
    205  CB        63.0970   45.3590   15.0560 C.3   178  CYS178      0.0997
    206  SG        61.4610   45.1370   14.3340 S.3   178  CYS178     -0.0797
    207  N         62.3070   43.3560   16.9630 N.am  179  ASP179     -0.1957
    208  CA        61.3790   42.4480   17.6180 C.3   179  ASP179      0.1840
    209  C         60.2970   43.2550   18.2990 C.2   179  ASP179      0.2622
    210  O         60.5760   43.9780   19.2480 O.2   179  ASP179     -0.2715
    211  CB        62.0920   41.5900   18.6670 C.3   179  ASP179      0.1450
    212  CG        61.2130   40.4480   19.1770 C.2   179  ASP179      0.3671
    213  OD1       61.6670   39.6550   20.0360 O.co2 179  ASP179     -0.2456
    214  OD2       60.0590   40.3370   18.7070 O.co2 179  ASP179     -0.2456
    215  N         59.0660   43.1450   17.8120 N.am  180  PHE180     -0.1974
    216  CA        57.9690   43.8690   18.4270 C.3   180  PHE180      0.1639
    217  C         57.5050   43.1140   19.6670 C.2   180  PHE180      0.2290
    218  O         56.7320   43.6320   20.4690 O.2   180  PHE180     -0.2864
    219  CB        56.8170   44.0630   17.4390 C.3   180  PHE180      0.0560
    220  CG        57.1260   45.0360   16.3340 C.ar  180  PHE180     -0.0200
    221  CD1       57.5970   44.5930   15.1080 C.ar  180  PHE180     -0.0042
    222  CD2       56.9520   46.4000   16.5260 C.ar  180  PHE180     -0.0042
    223  CE1       57.8860   45.4930   14.0920 C.ar  180  PHE180     -0.0003
    224  CE2       57.2420   47.3040   15.5110 C.ar  180  PHE180     -0.0003
    225  CZ        57.7090   46.8480   14.2910 C.ar  180  PHE180     -0.0000
@<TRIPOS>BOND
     1   139   140   ar
     2   139   137   ar
     3   140   138   ar
     4   137   135   ar
     5   138   136   ar
     6   129   128    1
     7   135   136   ar
     8   135   134    1
     9   128   127    1
    10   134   131    1
    11   127   126    1
    12   131   130    1
    13   131   132    1
    14   126   125    1
    15   133   132    2
    16   148   147    2
    17   130   123   am
    18   125   122    1
    19   132   141   am
    20   147   146    1
    21   123   124    2
    22   123   122    1
    23   151   150    2
    24   122   121    1
    25   144   143    2
    26   141   142    1
    27   188   187    2
    28   187   186    1
    29   143   142    1
    30   143   145   am
    31   121   117   am
    32   146   145    1
    33   146   149    1
    34   150   152   am
    35   150   149    1
    36   186   185    1
    37   186   189    1
    38   117   118    2
    39   117   116    1
    40   116   119    1
    41   116   115    1
    42   119   120    1
    43   189   190    1
    44   113   111   ar
    45   113   114   ar
    46   107   106    2
    47   198   200    1
    48   198   197    1
    49   111   109   ar
    50   193   194    1
    51   192   190    1
    52   115   106   am
    53   114   112   ar
    54   102   101   ar
    55   190   191    1
    56   106   105    1
    57   194   197    1
    58   194   195    1
    59    67    68    1
    60   197   199    1
    61   109   108    1
    62   109   110   ar
    63   101   103   ar
    64   101   100    1
    65   112   110   ar
    66   108   105    1
    67   105   104    1
    68   195   201   am
    69   195   196    2
    70    68    69    1
    71    68    71    1
    72   100    99    1
    73   104    97   am
    74   201   202    1
    75   223   225   ar
    76   223   221   ar
    77    69    74   am
    78    69    70    2
    79    73    71    1
    80     8     6    1
    81    99    96    1
    82    74    75    1
    83   225   224   ar
    84   206   205    1
    85    71    72    1
    86    75    78    1
    87    75    76    1
    88    97    98    2
    89    97    96    1
    90   205   202    1
    91   221   220   ar
    92   153   154    1
    93   202   203    1
    94    96    95    1
    95   204   203    2
    96    78    80    1
    97    78    79    1
    98     4     3    2
    99   224   222   ar
   100     6     7    1
   101     6     5    1
   102    76    77    2
   103     5     2    1
   104   203   207   am
   105   183   184   ar
   106   183   181   ar
   107   184   182   ar
   108   181   180   ar
   109   159   158    1
   110   182   180   ar
   111   180   179    1
   112     2     3    1
   113     2     1    1
   114   157   158    1
   115   157   154    1
   116   158   160    1
   117   179   176    1
   118   220   222   ar
   119   220   219    1
   120     3     9   am
   121   154   155    1
   122    95    90   am
   123   155   156    2
   124   207   208    1
   125    24    21    1
   126   219   216    1
   127    20    21    1
   128    90    91    2
   129    90    89    1
   130     9    10    1
   131   208   209    1
   132   208   211    1
   133    93    92    1
   134   176   175    1
   135   176   177    1
   136   215   209   am
   137   215   216    1
   138   175   169   am
   139    21    22    1
   140    10    11    1
   141   177   178    2
   142   209   210    2
   143    92    89    1
   144    92    94    1
   145   216   217    1
   146   164   163    2
   147   211   212    1
   148   214   212   ar
   149    18    17    1
   150    89    88    1
   151   173   171    1
   152   169   168    1
   153   169   170    2
   154   212   213   ar
   155    65    63    1
   156   168   171    1
   157   168   167    1
   158    22    23    2
   159    17    19    1
   160    17    14    1
   161    11    12    2
   162    16    15    2
   163   217   218    2
   164   163   167   am
   165   163   162    1
   166   171   172    1
   167   172   174    1
   168    62    61    2
   169    15    14    1
   170   161   162    1
   171    14    13    1
   172    66    64    1
   173    58    56    1
   174    61    60    1
   175    63    64    1
   176    63    60    1
   177   162   165    1
   178   165   166    1
   179    60    59    1
   180    56    57    1
   181    56    55    1
   182    54    53    2
   183    41    40   ar
   184    55    52    1
   185    25    26    1
   186    52    53    1
   187    52    51    1
   188    84    83    2
   189    29    26    1
   190    29    30    1
   191    31    32    1
   192    31    30    1
   193    33    32    1
   194    26    27    1
   195    83    82    1
   196    46    45    2
   197    40    39    1
   198    40    42   ar
   199    49    47    1
   200    86    85    1
   201    51    45   am
   202    39    38    1
   203    45    44    1
   204    85    82    1
   205    85    87    1
   206    27    28    2
   207    82    81    1
   208    37    36    2
   209    47    44    1
   210    47    48    1
   211    44    43    1
   212    38    35    1
   213    36    35    1
   214    50    48    1
   215    35    34    1
