@<TRIPOS>MOLECULE
tmp/2rl9A01.pdb
 95 90 0 0 0
SMALL
GASTEIGER

@<TRIPOS>ATOM
      1  N         47.4410   35.1750    9.0890 N.3    36  MET36      -0.1230
      2  CA        47.9420   36.2100    9.9880 C.3    36  MET36       0.1702
      3  C         48.2010   35.5940   11.3680 C.2    36  MET36       0.2592
      4  O         49.1150   36.0050   12.0780 O.2    36  MET36      -0.2718
      5  CB        46.8990   37.3260   10.1110 C.3    36  MET36       0.0401
      6  CG        47.3260   38.5370   10.9080 C.3    36  MET36       0.0596
      7  SD        45.9030   39.6100   11.2470 S.3    36  MET36      -0.1393
      8  CE        45.8690   40.6370    9.7630 C.3    36  MET36       0.0692
      9  N         47.3940   34.6020   11.7370 N.am   37  TYR37      -0.1976
     10  CA        47.5260   33.9400   13.0350 C.3    37  TYR37       0.1639
     11  C         47.8340   32.4580   12.9450 C.2    37  TYR37       0.2290
     12  O         47.5980   31.8000   11.9310 O.2    37  TYR37      -0.2864
     13  CB        46.2370   34.0270   13.8490 C.3    37  TYR37       0.0560
     14  CG        45.6140   35.3830   13.9870 C.ar   37  TYR37      -0.0198
     15  CD1       46.1470   36.3320   14.8460 C.ar   37  TYR37      -0.0009
     16  CD2       44.4640   35.7060   13.2740 C.ar   37  TYR37      -0.0009
     17  CE1       45.5470   37.5680   14.9940 C.ar   37  TYR37       0.0417
     18  CE2       43.8560   36.9370   13.4110 C.ar   37  TYR37       0.0417
     19  CZ        44.4000   37.8630   14.2720 C.ar   37  TYR37       0.1957
     20  OH        43.7950   39.0820   14.4100 O.3    37  TYR37      -0.2866
     21  N         46.1440   31.8310   20.3740 N.3    58  GLN58      -0.1245
     22  CA        46.2590   32.4560   19.0670 C.3    58  GLN58       0.1566
     23  C         47.5520   33.2680   19.0310 C.2    58  GLN58       0.2260
     24  O         47.7370   34.2100   19.8070 O.2    58  GLN58      -0.2867
     25  CB        45.0960   33.3930   18.8120 C.3    58  GLN58       0.0367
     26  CG        45.3090   34.2260   17.5750 C.3    58  GLN58       0.0905
     27  CD        44.3240   35.3580   17.4720 C.2    58  GLN58       0.2608
     28  OE1       43.3710   35.3080   16.6910 O.2    58  GLN58      -0.2717
     29  NE2       44.5410   36.3880   18.2710 N.am   58  GLN58      -0.0878
     30  N         50.2560   35.7710   17.1430 N.3    60  GLN60      -0.1245
     31  CA        50.3900   36.8440   16.1670 C.3    60  GLN60       0.1566
     32  C         51.7100   36.5720   15.4650 C.2    60  GLN60       0.2260
     33  O         52.7660   36.8670   16.0000 O.2    60  GLN60      -0.2867
     34  CB        50.4650   38.1780   16.9080 C.3    60  GLN60       0.0367
     35  CG        50.2610   39.4140   16.0650 C.3    60  GLN60       0.0905
     36  CD        48.8150   39.6100   15.6830 C.2    60  GLN60       0.2608
     37  OE1       48.3140   38.9610   14.7710 O.2    60  GLN60      -0.2717
     38  NE2       48.1270   40.4990   16.3970 N.am   60  GLN60      -0.0878
     39  N         53.0660   37.6630   19.5590 N.3    65  LYS65      -0.1245
     40  CA        52.1840   37.8520   20.6930 C.3    65  LYS65       0.1561
     41  C         51.2570   36.6570   20.8820 C.2    65  LYS65       0.2260
     42  O         50.6160   36.1900   19.9340 O.2    65  LYS65      -0.2867
     43  CB        51.3290   39.1030   20.5320 C.3    65  LYS65       0.0271
     44  CG        50.2800   39.1940   21.6400 C.3    65  LYS65       0.0035
     45  CD        49.2990   40.3030   21.4140 C.3    65  LYS65       0.0206
     46  CE        48.3060   40.3720   22.5520 C.3    65  LYS65       0.1093
     47  NZ        47.4100   41.5650   22.4070 N.3    65  LYS65      -0.1314
     48  N         39.1490   44.0070   24.1460 N.3    95  ASP95      -0.1225
     49  CA        39.3040   45.4040   24.5370 C.3    95  ASP95       0.1805
     50  C         38.2640   46.3270   23.8900 C.2    95  ASP95       0.2598
     51  O         37.7770   47.2630   24.5270 O.2    95  ASP95      -0.2718
     52  CB        40.7130   45.9000   24.2030 C.3    95  ASP95       0.1424
     53  CG        41.7810   45.1520   24.9600 C.2    95  ASP95       0.3668
     54  OD1       41.6410   44.9870   26.1890 O.co2  95  ASP95      -0.2456
     55  OD2       42.7690   44.7330   24.3320 O.co2  95  ASP95      -0.2456
     56  N         37.9280   46.0500   22.6330 N.am   96  ASN96      -0.1960
     57  CA        36.9660   46.8530   21.8800 C.3    96  ASN96       0.1819
     58  C         35.8620   46.0200   21.2490 C.2    96  ASN96       0.2621
     59  O         35.2870   46.4240   20.2410 O.2    96  ASN96      -0.2715
     60  CB        37.6730   47.6120   20.7630 C.3    96  ASN96       0.1195
     61  CG        38.8350   48.4230   21.2600 C.2    96  ASN96       0.2630
     62  OD1       38.6550   49.4520   21.9050 O.2    96  ASN96      -0.2716
     63  ND2       40.0460   47.9580   20.9700 N.am   96  ASN96      -0.0877
     64  N         35.5740   44.8540   21.8140 N.am   97  HIS97      -0.1973
     65  CA        34.5150   43.9980   21.2810 C.3    97  HIS97       0.1656
     66  C         33.8270   43.2420   22.3990 C.2    97  HIS97       0.2291
     67  O         34.3200   43.1840   23.5230 O.2    97  HIS97      -0.2864
     68  CB        35.0650   42.9410   20.3170 C.3    97  HIS97       0.0771
     69  CG        35.6760   43.4960   19.0730 C.ar   97  HIS97       0.0820
     70  ND1       36.8530   44.2100   19.0760 N.ar   97  HIS97      -0.2267
     71  CD2       35.2820   43.4260   17.7810 C.ar   97  HIS97       0.1154
     72  CE1       37.1600   44.5580   17.8390 C.ar   97  HIS97       0.1986
     73  NE2       36.2230   44.0940   17.0340 N.ar   97  HIS97      -0.2212
     74  N         37.7350   35.9600   26.0220 N.3   103  ARG103     -0.1245
     75  CA        37.6060   35.1850   24.8000 C.3   103  ARG103      0.1563
     76  C         37.1070   33.7810   25.1380 C.2   103  ARG103      0.2260
     77  O         37.0320   33.4000   26.3110 O.2   103  ARG103     -0.2867
     78  CB        38.9350   35.1200   24.0610 C.3   103  ARG103      0.0307
     79  CG        39.3570   36.4410   23.4210 C.3   103  ARG103      0.0489
     80  CD        40.6490   36.2440   22.6480 C.3   103  ARG103      0.2205
     81  NE        41.0440   37.4020   21.8460 N.pl3 103  ARG103     -0.0865
     82  CZ        41.4930   38.5530   22.3400 C.cat 103  ARG103      0.5346
     83  NH1       41.6050   38.7290   23.6490 N.pl3 103  ARG103      0.1354
     84  NH2       41.8660   39.5220   21.5140 N.pl3 103  ARG103      0.1354
     85  N         32.9840   37.9540   16.6270 N.3   127  ARG127     -0.1245
     86  CA        33.2670   39.0480   17.5430 C.3   127  ARG127      0.1563
     87  C         32.3020   40.2060   17.3430 C.2   127  ARG127      0.2260
     88  O         32.5500   41.3160   17.8160 O.2   127  ARG127     -0.2867
     89  CB        34.7030   39.5430   17.3530 C.3   127  ARG127      0.0307
     90  CG        34.9730   40.2000   16.0130 C.3   127  ARG127      0.0489
     91  CD        36.4270   40.6070   15.9190 C.3   127  ARG127      0.2205
     92  NE        36.7780   41.1950   14.6300 N.pl3 127  ARG127     -0.0865
     93  CZ        38.0290   41.4060   14.2390 C.cat 127  ARG127      0.5346
     94  NH1       39.0310   41.0720   15.0440 N.pl3 127  ARG127      0.1354
     95  NH2       38.2830   41.9510   13.0540 N.pl3 127  ARG127      0.1354
@<TRIPOS>BOND
     1     1     2    1
     2     8     7    1
     3     2     5    1
     4     2     3    1
     5     5     6    1
     6     6     7    1
     7     3     9   am
     8     3     4    2
     9     9    10    1
    10    12    11    2
    11    11    10    1
    12    10    13    1
    13    95    93    1
    14    16    18   ar
    15    16    14   ar
    16    18    19   ar
    17    13    14    1
    18    14    15   ar
    19    93    92    2
    20    93    94    1
    21    19    20    1
    22    19    17   ar
    23    92    91    1
    24    37    36    2
    25    15    17   ar
    26    32    33    2
    27    32    31    1
    28    36    35    1
    29    36    38   am
    30    91    90    1
    31    90    89    1
    32    35    34    1
    33    31    34    1
    34    31    30    1
    35    85    86    1
    36    28    27    2
    37    73    71   ar
    38    73    72   ar
    39    87    86    1
    40    87    88    2
    41    89    86    1
    42    27    26    1
    43    27    29   am
    44    26    25    1
    45    71    69   ar
    46    72    70   ar
    47    25    22    1
    48    23    22    1
    49    23    24    2
    50    22    21    1
    51    69    70   ar
    52    69    68    1
    53    39    40    1
    54    42    41    2
    55    59    58    2
    56    68    65    1
    57    43    40    1
    58    43    44    1
    59    40    41    1
    60    60    61    1
    61    60    57    1
    62    63    61   am
    63    58    64   am
    64    58    57    1
    65    61    62    2
    66    65    64    1
    67    65    66    1
    68    45    44    1
    69    45    46    1
    70    84    82    1
    71    81    82    2
    72    81    80    1
    73    57    56    1
    74    82    83    1
    75    66    67    2
    76    47    46    1
    77    56    50   am
    78    80    79    1
    79    79    78    1
    80    50    51    2
    81    50    49    1
    82    78    75    1
    83    48    49    1
    84    52    49    1
    85    52    53    1
    86    55    53   ar
    87    75    76    1
    88    75    74    1
    89    53    54   ar
    90    76    77    2
