@<TRIPOS>MOLECULE
tmp/2rmcC00.pdb
 184 177 0 0 0
SMALL
GASTEIGER

@<TRIPOS>ATOM
      1  N         13.5840   85.5130   17.5540 N.3    58  HIS58      -0.1226
      2  CA        12.6740   86.0770   18.5570 C.3    58  HIS58       0.1752
      3  C         11.5010   86.8490   18.0260 C.2    58  HIS58       0.2595
      4  O         10.5840   87.1230   18.8020 O.2    58  HIS58      -0.2718
      5  CB        13.3960   87.0350   19.5450 C.3    58  HIS58       0.0759
      6  CG        13.9450   88.3460   18.9670 C.ar   58  HIS58       0.0818
      7  ND1       15.1030   88.4430   18.3000 N.ar   58  HIS58      -0.2268
      8  CD2       13.3750   89.5920   19.0220 C.ar   58  HIS58       0.1154
      9  CE1       15.2400   89.7010   17.9390 C.ar   58  HIS58       0.1986
     10  NE2       14.2020   90.3730   18.3810 N.ar   58  HIS58      -0.2212
     11  N         11.5160   87.2870   16.7670 N.am   59  ARG59      -0.1980
     12  CA        10.4330   88.1070   16.2330 C.3    59  ARG59       0.1597
     13  C         10.1550   87.6130   14.8060 C.2    59  ARG59       0.2287
     14  O         11.0550   87.5880   13.9520 O.2    59  ARG59      -0.2864
     15  CB        10.8650   89.5680   16.2540 C.3    59  ARG59       0.0334
     16  CG         9.7270   90.4920   15.8430 C.3    59  ARG59       0.0492
     17  CD        10.1450   91.9040   16.1500 C.3    59  ARG59       0.2205
     18  NE         9.2140   92.8770   15.5970 N.pl3  59  ARG59      -0.0865
     19  CZ         9.4970   93.6470   14.5350 C.cat  59  ARG59       0.5346
     20  NH1       10.6790   93.5490   13.8980 N.pl3  59  ARG59       0.1354
     21  NH2        8.5850   94.5300   14.1120 N.pl3  59  ARG59       0.1354
     22  N          7.1610   87.8670   11.6960 N.3    61  ILE61      -0.1245
     23  CA         5.9570   88.5230   11.1920 C.3    61  ILE61       0.1561
     24  C          5.7680   87.9770    9.7780 C.2    61  ILE61       0.2260
     25  O          6.5900   88.2650    8.8880 O.2    61  ILE61      -0.2867
     26  CB         6.1740   90.0410   11.1950 C.3    61  ILE61       0.0252
     27  CG1        6.2720   90.5400   12.6290 C.3    61  ILE61       0.0019
     28  CG2        5.0210   90.7280   10.4720 C.3    61  ILE61       0.0019
     29  CD1        6.7090   92.0020   12.7360 C.3    61  ILE61       0.0001
     30  N          4.9270   87.3120    6.0020 N.3    63  ASP63      -0.1225
     31  CA         4.9940   88.1950    4.8420 C.3    63  ASP63       0.1805
     32  C          5.8540   89.4410    5.0800 C.2    63  ASP63       0.2598
     33  O          5.8120   90.4320    4.3210 O.2    63  ASP63      -0.2718
     34  CB         3.5950   88.6600    4.4140 C.3    63  ASP63       0.1424
     35  CG         2.6210   87.5590    4.0940 C.2    63  ASP63       0.3668
     36  OD1        2.9590   86.5820    3.4310 O.co2  63  ASP63      -0.2456
     37  OD2        1.4790   87.6700    4.5180 O.co2  63  ASP63      -0.2456
     38  N          6.6610   89.4600    6.1470 N.am   64  PHE64      -0.1962
     39  CA         7.5410   90.5930    6.3220 C.3    64  PHE64       0.1771
     40  C          8.9700   90.1050    6.5350 C.2    64  PHE64       0.2619
     41  O          9.8160   90.3030    5.6460 O.2    64  PHE64      -0.2715
     42  CB         7.0440   91.4800    7.4940 C.3    64  PHE64       0.0574
     43  CG         7.8920   92.7020    7.8270 C.ar   64  PHE64      -0.0200
     44  CD1        8.6060   93.3990    6.8540 C.ar   64  PHE64      -0.0042
     45  CD2        8.0290   93.0760    9.1600 C.ar   64  PHE64      -0.0042
     46  CE1        9.4700   94.4270    7.2160 C.ar   64  PHE64      -0.0003
     47  CE2        8.8970   94.0920    9.5130 C.ar   64  PHE64      -0.0003
     48  CZ         9.6290   94.7660    8.5490 C.ar   64  PHE64      -0.0000
     49  N          9.2740   89.4070    7.6310 N.am   65  MET65      -0.1977
     50  CA        10.6450   89.0110    7.9090 C.3    65  MET65       0.1605
     51  C         10.7080   88.1630    9.1710 C.2    65  MET65       0.2287
     52  O          9.7220   88.0500    9.9200 O.2    65  MET65      -0.2864
     53  CB        11.5290   90.2510    8.0910 C.3    65  MET65       0.0413
     54  CG        11.2290   91.2710    9.1970 C.3    65  MET65       0.0598
     55  SD        11.7650   90.7080   10.8390 S.3    65  MET65      -0.1393
     56  CE        10.2390   90.7260   11.7310 C.3    65  MET65       0.0692
     57  N         13.4840   87.7020   12.4580 N.3    67  GLN67      -0.1196
     58  CA        14.5770   88.4390   13.0570 C.3    67  GLN67       0.1782
     59  C         15.2460   87.6000   14.1450 C.2    67  GLN67       0.2306
     60  O         14.5560   86.9160   14.9170 O.2    67  GLN67      -0.2863
     61  CB        13.9940   89.7300   13.6310 C.2    67  GLN67       0.0051
     62  CG        14.9240   90.6920   14.3850 C.2    67  GLN67       0.0584
     63  CD        14.2480   91.9400   14.9400 C.2    67  GLN67       0.2840
     64  OE1       13.0570   92.2040   14.7110 O.2    67  GLN67      -0.2667
     65  NE2       14.9580   92.7700   15.6920 N.am   67  GLN67      -0.0837
     66  N         15.5220   88.6130   23.4530 N.3    75  ASP75      -0.1225
     67  CA        14.2130   89.2530   23.3780 C.3    75  ASP75       0.1805
     68  C         14.1610   90.4020   22.3870 C.2    75  ASP75       0.2598
     69  O         13.0770   90.8830   22.0350 O.2    75  ASP75      -0.2718
     70  CB        13.8190   89.7680   24.7790 C.3    75  ASP75       0.1424
     71  CG        14.7310   90.8460   25.3340 C.2    75  ASP75       0.3668
     72  OD1       15.7640   91.1200   24.7590 O.co2  75  ASP75      -0.2456
     73  OD2       14.4310   91.4810   26.3280 O.co2  75  ASP75      -0.2456
     74  N         15.3140   90.8360   21.8990 N.am   76  GLY76      -0.1942
     75  CA        15.4090   91.9150   20.9450 C.3    76  GLY76       0.2014
     76  C         16.1110   93.1270   21.5170 C.2    76  GLY76       0.2640
     77  O         16.3870   94.0750   20.7810 O.2    76  GLY76      -0.2714
     78  N         16.4520   93.1260   22.8080 N.am   77  THR77      -0.1936
     79  CA        17.0770   94.2870   23.4070 C.3    77  THR77       0.2028
     80  C         18.5980   94.1420   23.4420 C.2    77  THR77       0.2642
     81  O         19.2850   95.1390   23.6900 O.2    77  THR77      -0.2714
     82  CB        16.5170   94.5080   24.8530 C.3    77  THR77       0.1808
     83  OG1       16.8750   93.3830   25.6510 O.3    77  THR77      -0.2208
     84  CG2       15.0050   94.7220   24.8370 C.3    77  THR77       0.0379
     85  N         19.1750   92.9700   23.1950 N.am   78  GLY78      -0.1954
     86  CA        20.6230   92.8500   23.2790 C.3    78  GLY78       0.1869
     87  C         21.3620   92.5260   21.9840 C.2    78  GLY78       0.2309
     88  O         20.9610   92.9040   20.8710 O.2    78  GLY78      -0.2863
     89  N         19.4580   94.4580   11.6660 N.3   105  ALA105     -0.1231
     90  CA        18.4640   95.1440   12.4880 C.3   105  ALA105      0.1694
     91  C         19.2490   96.2030   13.2920 C.2   105  ALA105      0.2592
     92  O         20.4690   96.0680   13.4890 O.2   105  ALA105     -0.2718
     93  CB        17.8030   94.1620   13.4540 C.3   105  ALA105      0.0304
     94  N         18.6400   97.2780   13.7950 N.am  106  ASN106     -0.1960
     95  CA        19.3970   98.2910   14.5150 C.3   106  ASN106      0.1819
     96  C         18.4130   99.0650   15.3840 C.2   106  ASN106      0.2621
     97  O         17.2290   98.7070   15.4780 O.2   106  ASN106     -0.2715
     98  CB        20.1130   99.2320   13.5110 C.3   106  ASN106      0.1195
     99  CG        19.2250  100.0520   12.5740 C.2   106  ASN106      0.2630
    100  OD1       18.1890  100.6170   12.9620 O.2   106  ASN106     -0.2716
    101  ND2       19.5880  100.1420   11.3010 N.am  106  ASN106     -0.0877
    102  N         18.8690  100.0900   16.0930 N.am  107  ALA107     -0.1963
    103  CA        17.9920  100.9410   16.8700 C.3   107  ALA107      0.1728
    104  C         18.3060  102.3510   16.4250 C.2   107  ALA107      0.2616
    105  O         18.4400  103.2540   17.2470 O.2   107  ALA107     -0.2715
    106  CB        18.2820  100.7880   18.3590 C.3   107  ALA107      0.0334
    107  N         18.4430  102.5590   15.1150 N.am  108  GLY108     -0.1955
    108  CA        18.6950  103.8760   14.5700 C.3   108  GLY108      0.1869
    109  C         20.0560  103.9330   13.9060 C.2   108  GLY108      0.2309
    110  O         20.7430  102.9130   13.8880 O.2   108  GLY108     -0.2863
    111  N         23.8980  101.8170   14.9400 N.3   111  THR111     -0.1218
    112  CA        23.7240  101.0030   16.1280 C.3   111  THR111      0.1862
    113  C         23.6890   99.5350   15.7390 C.2   111  THR111      0.2287
    114  O         22.8820   98.7380   16.2360 O.2   111  THR111     -0.2866
    115  CB        22.4120  101.4330   16.8930 C.3   111  THR111      0.1770
    116  OG1       21.3200  101.3800   15.9950 O.3   111  THR111     -0.2211
    117  CG2       22.4930  102.8470   17.4430 C.3   111  THR111      0.0375
    118  N         22.0230   91.6070   15.7060 N.3   115  GLN115     -0.1245
    119  CA        20.7110   91.2040   15.2390 C.3   115  GLN115      0.1566
    120  C         20.5780   91.4920   13.7470 C.2   115  GLN115      0.2260
    121  O         21.0220   92.5190   13.2190 O.2   115  GLN115     -0.2867
    122  CB        19.6350   91.9690   16.0050 C.3   115  GLN115      0.0367
    123  CG        19.5050   91.4760   17.4600 C.3   115  GLN115      0.0905
    124  CD        18.3070   92.1490   18.1170 C.2   115  GLN115      0.2608
    125  OE1       17.1700   92.0510   17.6200 O.2   115  GLN115     -0.2717
    126  NE2       18.5190   92.8550   19.2240 N.am  115  GLN115     -0.0878
    127  N         17.8220   90.3130   10.1070 N.3   117  PHE117     -0.1241
    128  CA        16.5570   89.7850    9.6520 C.3   117  PHE117      0.1605
    129  C         16.6930   89.2420    8.2260 C.2   117  PHE117      0.2264
    130  O         17.6030   89.6480    7.4720 O.2   117  PHE117     -0.2867
    131  CB        15.4920   90.8870    9.7240 C.3   117  PHE117      0.0534
    132  CG        15.6900   92.1520    8.9190 C.ar  117  PHE117     -0.0203
    133  CD1       16.4480   93.2050    9.4330 C.ar  117  PHE117     -0.0042
    134  CD2       15.0320   92.2800    7.7050 C.ar  117  PHE117     -0.0042
    135  CE1       16.5170   94.4050    8.7480 C.ar  117  PHE117     -0.0003
    136  CE2       15.1090   93.4860    7.0320 C.ar  117  PHE117     -0.0003
    137  CZ        15.8360   94.5430    7.5450 C.ar  117  PHE117     -0.0000
    138  N          9.5530   89.6980    1.8920 N.3   121  THR121     -0.1218
    139  CA         8.8710   90.5740    0.9680 C.3   121  THR121      0.1862
    140  C          9.9740   91.5010    0.4110 C.2   121  THR121      0.2287
    141  O         11.1640   91.2660    0.6910 O.2   121  THR121     -0.2866
    142  CB         7.7490   91.3500    1.7380 C.3   121  THR121      0.1770
    143  OG1        6.9960   92.0130    0.7240 O.3   121  THR121     -0.2211
    144  CG2        8.2570   92.3520    2.7750 C.3   121  THR121      0.0375
    145  N         10.6660  100.2730    2.0820 N.3   125  TRP125     -0.1227
    146  CA        10.6160  101.3100    3.1030 C.3   125  TRP125      0.1737
    147  C         11.8500  101.1950    4.0070 C.2   125  TRP125      0.2595
    148  O         12.2680  102.1670    4.6420 O.2   125  TRP125     -0.2718
    149  CB         9.2760  101.1910    3.9090 C.3   125  TRP125      0.0564
    150  CG         8.9220   99.8210    4.5090 C.ar  125  TRP125      0.0003
    151  CD1        9.1710   99.5430    5.8370 C.ar  125  TRP125      0.0946
    152  CD2        8.3640   98.7420    3.8580 C.ar  125  TRP125      0.0152
    153  NE1        8.7800   98.3050    6.0220 N.ar  125  TRP125     -0.2442
    154  CE2        8.3060   97.7850    4.8770 C.ar  125  TRP125      0.0810
    155  CE3        7.8600   98.4490    2.6010 C.ar  125  TRP125      0.0012
    156  CZ2        7.7760   96.5290    4.6470 C.ar  125  TRP125      0.0191
    157  CZ3        7.3160   97.1940    2.3790 C.ar  125  TRP125      0.0001
    158  CH2        7.2770   96.2400    3.3800 C.ar  125  TRP125      0.0015
    159  N         12.5520  100.0590    4.0150 N.am  126  LEU126     -0.1980
    160  CA        13.7560   99.9200    4.8110 C.3   126  LEU126      0.1596
    161  C         15.0590  100.3280    4.1260 C.2   126  LEU126      0.2287
    162  O         16.0690  100.5320    4.8330 O.2   126  LEU126     -0.2864
    163  CB        13.8410   98.4750    5.2800 C.3   126  LEU126      0.0297
    164  CG        12.7030   97.9520    6.1550 C.3   126  LEU126      0.0022
    165  CD1       12.9730   96.5000    6.4900 C.3   126  LEU126      0.0001
    166  CD2       12.5780   98.7890    7.4180 C.3   126  LEU126      0.0001
    167  N         18.9090  100.3120    6.8900 N.3   130  HIS130     -0.1241
    168  CA        19.4490   99.0680    7.4330 C.3   130  HIS130      0.1621
    169  C         20.4870   98.5620    6.4440 C.2   130  HIS130      0.2264
    170  O         20.2120   98.5900    5.2390 O.2   130  HIS130     -0.2867
    171  CB        18.3590   97.9890    7.6010 C.3   130  HIS130      0.0745
    172  CG        17.3200   98.3300    8.6740 C.ar  130  HIS130      0.0817
    173  ND1       17.4330   97.9430    9.9420 N.ar  130  HIS130     -0.2268
    174  CD2       16.2870   99.2390    8.5860 C.ar  130  HIS130      0.1154
    175  CE1       16.5510   98.6250   10.6330 C.ar  130  HIS130      0.1986
    176  NE2       15.8850   99.4140    9.8200 N.ar  130  HIS130     -0.2212
    177  N          4.9110   89.0030   18.7120 N.3   155  ASP155     -0.1239
    178  CA         5.3700   88.3100   17.5150 C.3   155  ASP155      0.1674
    179  C          6.4910   87.3310   17.8240 C.2   155  ASP155      0.2266
    180  O          7.3110   86.9800   16.9610 O.2   155  ASP155     -0.2867
    181  CB         5.8060   89.3780   16.4770 C.3   155  ASP155      0.1410
    182  CG         4.7090   90.3980   16.2020 C.2   155  ASP155      0.3668
    183  OD1        3.6060   90.0110   15.8440 O.co2 155  ASP155     -0.2456
    184  OD2        4.9290   91.5890   16.3570 O.co2 155  ASP155     -0.2456
@<TRIPOS>BOND
     1   140   141    2
     2   140   139    1
     3   143   142    1
     4   139   142    1
     5   139   138    1
     6   142   144    1
     7   145   146    1
     8   157   155   ar
     9   157   158   ar
    10   155   152   ar
    11   146   149    1
    12   146   147    1
    13   158   156   ar
    14    36    35   ar
    15   152   150   ar
    16   152   154   ar
    17   149   150    1
    18   147   159   am
    19   147   148    2
    20   159   160    1
    21    35    34    1
    22    35    37   ar
    23   161   160    1
    24   161   162    2
    25    33    32    2
    26    34    31    1
    27   150   151   ar
    28   156   154   ar
    29   160   163    1
    30    31    32    1
    31    31    30    1
    32   154   153   ar
    33    32    38   am
    34   170   169    2
    35   163   164    1
    36    41    40    2
    37   151   153   ar
    38    38    39    1
    39   164   165    1
    40   164   166    1
    41    39    40    1
    42    39    42    1
    43   169   168    1
    44    40    49   am
    45    44    46   ar
    46    44    43   ar
    47   167   168    1
    48   136   137   ar
    49   136   134   ar
    50    46    48   ar
    51   168   171    1
    52   130   129    2
    53    42    43    1
    54   137   135   ar
    55   171   172    1
    56    49    50    1
    57   134   132   ar
    58    43    45   ar
    59    50    53    1
    60    50    51    1
    61    53    54    1
    62   129   128    1
    63    48    47   ar
    64   174   172   ar
    65   174   176   ar
    66   172   173   ar
    67   135   133   ar
    68    25    24    2
    69   132   133   ar
    70   132   131    1
    71    45    47   ar
    72    51    52    2
    73    54    55    1
    74   128   131    1
    75   128   127    1
    76    24    23    1
    77   176   175   ar
    78   173   175   ar
    79    28    26    1
    80    55    56    1
    81    23    26    1
    82    23    22    1
    83    26    27    1
    84   101    99   am
    85    89    90    1
    86    57    58    1
    87    90    91    1
    88    90    93    1
    89    99   100    2
    90    99    98    1
    91    27    29    1
    92    58    61    1
    93    58    59    1
    94   121   120    2
    95    91    92    2
    96    91    94   am
    97    98    95    1
    98    61    62    2
    99   120   119    1
   100    94    95    1
   101   110   109    2
   102    20    19    1
   103   109   108    1
   104    14    13    2
   105    21    19    1
   106    59    60    2
   107    62    63    1
   108    95    96    1
   109    19    18    2
   110   108   107    1
   111    64    63    2
   112    13    12    1
   113    63    65   am
   114   111   112    1
   115   107   104   am
   116   119   118    1
   117   119   122    1
   118    96    97    2
   119    96   102   am
   120    18    17    1
   121   113   112    1
   122   113   114    2
   123    16    17    1
   124    16    15    1
   125   183   182   ar
   126   116   115    1
   127   122   123    1
   128   102   103    1
   129   112   115    1
   130   182   184   ar
   131   182   181    1
   132    12    15    1
   133    12    11    1
   134   104   103    1
   135   104   105    2
   136   181   178    1
   137    11     3   am
   138   103   106    1
   139   115   117    1
   140   180   179    2
   141   123   124    1
   142   178   179    1
   143   178   177    1
   144     1     2    1
   145   125   124    2
   146     9     7   ar
   147     9    10   ar
   148     3     2    1
   149     3     4    2
   150   124   126   am
   151     7     6   ar
   152    10     8   ar
   153     2     5    1
   154     6     8   ar
   155     6     5    1
   156    77    76    2
   157    88    87    2
   158    75    76    1
   159    75    74    1
   160    76    78   am
   161    74    68   am
   162    87    86    1
   163    69    68    2
   164    68    67    1
   165    78    79    1
   166    85    86    1
   167    85    80   am
   168    67    66    1
   169    67    70    1
   170    79    80    1
   171    79    82    1
   172    80    81    2
   173    72    71   ar
   174    70    71    1
   175    84    82    1
   176    82    83    1
   177    71    73   ar
