@<TRIPOS>MOLECULE
tmp/2rnfA00.pdb
 118 115 0 0 0
SMALL
GASTEIGER

@<TRIPOS>ATOM
      1  N         18.9580   -4.3700    6.3880 N.3     8  ARG8       -0.1245
      2  CA        19.0050   -3.6180    7.6220 C.3     8  ARG8        0.1563
      3  C         17.6110   -3.1360    7.9960 C.2     8  ARG8        0.2260
      4  O         17.2580   -3.1450    9.1660 O.2     8  ARG8       -0.2867
      5  CB        19.9120   -2.4110    7.4670 C.3     8  ARG8        0.0307
      6  CG        20.1490   -1.6920    8.7570 C.3     8  ARG8        0.0489
      7  CD        20.5780   -0.2490    8.5310 C.3     8  ARG8        0.2205
      8  NE        20.0140    0.6020    9.6010 N.pl3   8  ARG8       -0.0865
      9  CZ        20.6240    1.6400   10.1410 C.cat   8  ARG8        0.5346
     10  NH1       21.8490    2.0000    9.7550 N.pl3   8  ARG8        0.1354
     11  NH2       20.0560    2.2840   11.1280 N.pl3   8  ARG8        0.1354
     12  N         15.8450   -4.1950   11.5300 N.3    12  GLN12      -0.1231
     13  CA        15.3250   -3.1830   12.4380 C.3    12  GLN12       0.1698
     14  C         13.8160   -2.9360   12.5420 C.2    12  GLN12       0.2592
     15  O         13.3530   -2.5070   13.5910 O.2    12  GLN12      -0.2718
     16  CB        15.9250   -1.8110   12.1040 C.3    12  GLN12       0.0381
     17  CG        17.4070   -1.6170   12.3060 C.3    12  GLN12       0.0905
     18  CD        17.8130   -0.1600   12.0890 C.2    12  GLN12       0.2608
     19  OE1       17.1120    0.5980   11.4180 O.2    12  GLN12      -0.2717
     20  NE2       18.9410    0.2340   12.6600 N.am   12  GLN12      -0.0878
     21  N         13.0470   -3.1830   11.4930 N.am   13  HIS13      -0.1976
     22  CA        11.6410   -2.7940   11.5360 C.3    13  HIS13       0.1656
     23  C         10.5910   -3.8220   11.2640 C.2    13  HIS13       0.2291
     24  O          9.4190   -3.5100   11.3440 O.2    13  HIS13      -0.2864
     25  CB        11.4280   -1.6160   10.5550 C.3    13  HIS13       0.0771
     26  CG        12.3370   -0.4490   10.8010 C.ar   13  HIS13       0.0820
     27  ND1       12.1720    0.4170   11.8650 N.ar   13  HIS13      -0.2267
     28  CD2       13.4480   -0.0260   10.1440 C.ar   13  HIS13       0.1154
     29  CE1       13.1410    1.3180   11.8580 C.ar   13  HIS13       0.1986
     30  NE2       13.9270    1.0690   10.8250 N.ar   13  HIS13      -0.2212
     31  N         19.1690    2.8020   21.1630 N.3    41  LYS41      -0.1245
     32  CA        18.4960    3.5330   20.1020 C.3    41  LYS41       0.1561
     33  C         17.2870    4.1930   20.7790 C.2    41  LYS41       0.2260
     34  O         16.5570    3.5330   21.5370 O.2    41  LYS41      -0.2867
     35  CB        18.0680    2.5540   18.9800 C.3    41  LYS41       0.0271
     36  CG        17.4610    3.2110   17.7500 C.3    41  LYS41       0.0035
     37  CD        17.2720    2.2330   16.6120 C.3    41  LYS41       0.0206
     38  CE        17.3520    2.9340   15.2570 C.3    41  LYS41       0.1093
     39  NZ        16.1710    2.6130   14.4100 N.3    41  LYS41      -0.1314
     40  N         14.2120    5.7120   19.5420 N.3    43  PHE43      -0.1227
     41  CA        12.8650    5.2930   19.1540 C.3    43  PHE43       0.1736
     42  C         12.9920    4.3200   17.9890 C.2    43  PHE43       0.2595
     43  O         13.9500    4.4310   17.2200 O.2    43  PHE43      -0.2718
     44  CB        12.0590    6.5190   18.7340 C.3    43  PHE43       0.0547
     45  CG        10.5710    6.3030   18.6930 C.ar   43  PHE43      -0.0202
     46  CD1        9.9640    5.7560   17.5680 C.ar   43  PHE43      -0.0042
     47  CD2        9.7650    6.7070   19.7510 C.ar   43  PHE43      -0.0042
     48  CE1        8.5600    5.6240   17.4880 C.ar   43  PHE43      -0.0003
     49  CE2        8.3590    6.5790   19.6870 C.ar   43  PHE43      -0.0003
     50  CZ         7.7590    6.0370   18.5480 C.ar   43  PHE43      -0.0000
     51  N         12.0510    3.3640   17.8870 N.am   44  ASN44      -0.1960
     52  CA        12.0220    2.3390   16.8260 C.3    44  ASN44       0.1819
     53  C         10.6850    1.6400   16.6200 C.2    44  ASN44       0.2621
     54  O         10.0410    1.2120   17.5730 O.2    44  ASN44      -0.2715
     55  CB        13.0650    1.2440   17.0510 C.3    44  ASN44       0.1195
     56  CG        13.3690    0.4700   15.7700 C.2    44  ASN44       0.2630
     57  OD1       13.8160    1.0390   14.7890 O.2    44  ASN44      -0.2716
     58  ND2       13.1060   -0.8190   15.7760 N.am   44  ASN44      -0.0877
     59  N         10.2910    1.4910   15.3610 N.am   45  THR45      -0.1951
     60  CA         9.0350    0.8420   15.0420 C.3    45  THR45       0.1897
     61  C          9.2260   -0.5490   14.4770 C.2    45  THR45       0.2313
     62  O         10.0790   -0.7840   13.6360 O.2    45  THR45      -0.2863
     63  CB         8.2270    1.6650   14.0290 C.3    45  THR45       0.1794
     64  OG1        8.1400    3.0250   14.4880 O.3    45  THR45      -0.2208
     65  CG2        6.8320    1.0940   13.8620 C.3    45  THR45       0.0378
     66  N         10.7100   13.3770    4.7570 N.3    66  LYS66      -0.1245
     67  CA        11.0420   14.4810    5.6480 C.3    66  LYS66       0.1561
     68  C         12.1880   15.3020    5.0180 C.2    66  LYS66       0.2260
     69  O         12.2840   16.5090    5.2440 O.2    66  LYS66      -0.2867
     70  CB        11.4480   13.9580    7.0400 C.3    66  LYS66       0.0271
     71  CG        10.2730   13.8050    8.0280 C.3    66  LYS66       0.0035
     72  CD        10.6080   12.8850    9.2290 C.3    66  LYS66       0.0206
     73  CE         9.3300   12.4510    9.9960 C.3    66  LYS66       0.1093
     74  NZ         9.5660   11.4700   11.1140 N.3    66  LYS66      -0.1314
     75  N         -1.2900    1.9710   12.8320 N.3   102  ARG102     -0.1245
     76  CA        -1.1770    3.3290   12.3210 C.3   102  ARG102      0.1563
     77  C         -0.4740    3.5370   10.9770 C.2   102  ARG102      0.2260
     78  O          0.1660    2.6320   10.4120 O.2   102  ARG102     -0.2867
     79  CB        -0.4790    4.2200   13.3580 C.3   102  ARG102      0.0307
     80  CG         0.9680    3.8470   13.5910 C.3   102  ARG102      0.0489
     81  CD         1.7540    5.0730   13.9270 C.3   102  ARG102      0.2205
     82  NE         3.1170    4.7510   14.3330 N.pl3 102  ARG102     -0.0865
     83  CZ         4.1990    5.2410   13.7270 C.cat 102  ARG102      0.5346
     84  NH1        4.0470    6.0380   12.6890 N.pl3 102  ARG102      0.1354
     85  NH2        5.4210    4.9580   14.1430 N.pl3 102  ARG102      0.1354
     86  N         14.2900    2.6690    4.0070 N.3   117  HIS117     -0.1226
     87  CA        14.3210    3.5280    5.1700 C.3   117  HIS117      0.1752
     88  C         12.9310    3.8590    5.7100 C.2   117  HIS117      0.2596
     89  O         11.9600    3.9810    4.9650 O.2   117  HIS117     -0.2718
     90  CB        15.1260    4.7910    4.8470 C.3   117  HIS117      0.0759
     91  CG        14.6980    6.0080    5.6120 C.ar  117  HIS117      0.0818
     92  ND1       15.3490    6.4350    6.7480 N.ar  117  HIS117     -0.2268
     93  CD2       13.7040    6.8990    5.3820 C.ar  117  HIS117      0.1154
     94  CE1       14.7720    7.5410    7.1880 C.ar  117  HIS117      0.1986
     95  NE2       13.7700    7.8470    6.3770 N.ar  117  HIS117     -0.2212
     96  N         12.8710    3.9740    7.0350 N.am  118  PHE118     -0.1962
     97  CA        11.6560    4.2850    7.7710 C.3   118  PHE118      0.1771
     98  C         11.6290    5.7810    7.9840 C.2   118  PHE118      0.2620
     99  O         12.3940    6.3140    8.7730 O.2   118  PHE118     -0.2715
    100  CB        11.6790    3.5840    9.1330 C.3   118  PHE118      0.0574
    101  CG        10.3610    3.5820    9.8300 C.ar  118  PHE118     -0.0200
    102  CD1        9.4500    2.5640    9.6000 C.ar  118  PHE118     -0.0042
    103  CD2       10.0100    4.6160   10.6780 C.ar  118  PHE118     -0.0042
    104  CE1        8.2200    2.5660   10.1880 C.ar  118  PHE118     -0.0003
    105  CE2        8.7690    4.6260   11.2770 C.ar  118  PHE118     -0.0003
    106  CZ         7.8720    3.5930   11.0270 C.ar  118  PHE118     -0.0000
    107  N         10.7560    6.4710    7.2780 N.am  119  ASP119     -0.1957
    108  CA        10.6980    7.9010    7.4460 C.3   119  ASP119      0.1843
    109  C         10.0160    8.2930    8.7620 C.2   119  ASP119      0.2661
    110  O         10.5510    9.0950    9.5360 O.2   119  ASP119     -0.2711
    111  CB         9.9700    8.5280    6.2570 C.3   119  ASP119      0.1450
    112  CG        10.3920    9.9420    6.0160 C.2   119  ASP119      0.3671
    113  OD1       11.6160   10.2160    6.1160 O.co2 119  ASP119     -0.2456
    114  OD2        9.5060   10.7770    5.7350 O.co2 119  ASP119     -0.2456
    115  N          8.8340    7.7270    9.0070 N.am  120  GLY120     -0.1730
    116  CA         8.0830    8.0450   10.2110 C.2   120  GLY120      0.1340
    117  C          6.7410    7.3350   10.3470 C.2   120  GLY120      0.2521
    118  O          6.2270    6.7510    9.3710 O.2   120  GLY120     -0.2816
@<TRIPOS>BOND
     1    86    87    1
     2    66    67    1
     3    90    87    1
     4    90    91    1
     5    89    88    2
     6    68    69    2
     7    68    67    1
     8    87    88    1
     9    93    91   ar
    10    93    95   ar
    11    91    92   ar
    12    67    70    1
    13    88    96   am
    14   114   112   ar
    15   112   113   ar
    16   112   111    1
    17   111   108    1
    18    95    94   ar
    19     1     2    1
    20    92    94   ar
    21    96    97    1
    22    70    71    1
    23   107   108    1
    24   107    98   am
    25   108   109    1
    26     5     2    1
    27     5     6    1
    28     2     3    1
    29    97    98    1
    30    97   100    1
    31    98    99    2
    32     3     4    2
    33    71    72    1
    34     7     6    1
    35     7     8    1
    36   109   115    1
    37   109   110    2
    38   115   116    2
    39   100   101    1
    40    72    73    1
    41   118   117    2
    42   102   101   ar
    43   102   104   ar
    44     8     9    2
    45    10     9    1
    46   101   103   ar
    47    73    74    1
    48     9    11    1
    49    28    26   ar
    50    28    30   ar
    51   104   106   ar
    52   116   117    1
    53    78    77    2
    54    25    26    1
    55    25    22    1
    56   103   105   ar
    57    26    27   ar
    58    30    29   ar
    59    77    76    1
    60   106   105   ar
    61    23    24    2
    62    23    22    1
    63    19    18    2
    64    21    22    1
    65    21    14   am
    66    12    13    1
    67    29    27   ar
    68    18    17    1
    69    18    20   am
    70    16    17    1
    71    16    13    1
    72    76    75    1
    73    76    79    1
    74    13    14    1
    75    14    15    2
    76    84    83    1
    77    79    80    1
    78    80    81    1
    79    62    61    2
    80    83    85    1
    81    83    82    2
    82    65    63    1
    83    81    82    1
    84    63    64    1
    85    63    60    1
    86    39    38    1
    87    61    60    1
    88    57    56    2
    89    60    59    1
    90    38    37    1
    91    59    53   am
    92    56    58   am
    93    56    55    1
    94    37    36    1
    95    53    52    1
    96    53    54    2
    97    52    55    1
    98    52    51    1
    99    43    42    2
   100    48    46   ar
   101    48    50   ar
   102    46    45   ar
   103    36    35    1
   104    51    42   am
   105    42    41    1
   106    50    49   ar
   107    45    44    1
   108    45    47   ar
   109    44    41    1
   110    35    32    1
   111    41    40    1
   112    49    47   ar
   113    32    33    1
   114    32    31    1
   115    33    34    2
