@<TRIPOS>MOLECULE
tmp/2rntA00.pdb
 121 117 0 0 0
SMALL
GASTEIGER

@<TRIPOS>ATOM
      1  N         28.0270   35.2070   16.0640 N.3    36  ASN36      -0.1240
      2  CA        26.8310   34.5760   16.6660 C.3    36  ASN36       0.1653
      3  C         26.1990   33.5640   15.7280 C.2    36  ASN36       0.2266
      4  O         25.0910   33.1010   15.9620 O.2    36  ASN36      -0.2867
      5  CB        25.8270   35.6010   17.1210 C.3    36  ASN36       0.1155
      6  CG        25.4220   35.4300   18.5660 C.2    36  ASN36       0.2627
      7  OD1       24.2440   35.0830   18.8740 O.2    36  ASN36      -0.2716
      8  ND2       26.5120   35.6780   19.3380 N.am   36  ASN36      -0.0877
      9  N         24.8800   33.4470   12.3170 N.3    38  TYR38      -0.1241
     10  CA        23.5770   33.6880   11.6660 C.3    38  TYR38       0.1605
     11  C         23.5870   33.0790   10.2550 C.2    38  TYR38       0.2264
     12  O         24.6570   33.1000    9.6030 O.2    38  TYR38      -0.2867
     13  CB        23.2440   35.1560   11.4320 C.3    38  TYR38       0.0534
     14  CG        23.0010   35.8220   12.7820 C.ar   38  TYR38      -0.0201
     15  CD1       21.7660   35.7590   13.4180 C.ar   38  TYR38      -0.0009
     16  CD2       24.0660   36.5050   13.3220 C.ar   38  TYR38      -0.0009
     17  CE1       21.6000   36.3920   14.6430 C.ar   38  TYR38       0.0417
     18  CE2       23.9410   37.1600   14.5410 C.ar   38  TYR38       0.0417
     19  CZ        22.7070   37.0660   15.1400 C.ar   38  TYR38       0.1957
     20  OH        22.6120   37.7140   16.3280 O.3    38  TYR38      -0.2866
     21  N         20.3870   31.5440   12.5600 N.3    40  HIS40      -0.1241
     22  CA        20.3980   30.4110   13.5270 C.3    40  HIS40       0.1621
     23  C         18.9790   30.2550   13.9830 C.2    40  HIS40       0.2264
     24  O         18.1260   31.1220   13.7660 O.2    40  HIS40      -0.2867
     25  CB        21.4370   30.4660   14.6390 C.3    40  HIS40       0.0745
     26  CG        21.2820   31.6470   15.5050 C.ar   40  HIS40       0.0817
     27  ND1       20.2600   31.9090   16.3450 N.ar   40  HIS40      -0.2268
     28  CD2       22.0970   32.7050   15.6220 C.ar   40  HIS40       0.1154
     29  CE1       20.4440   33.0790   16.9650 C.ar   40  HIS40       0.1986
     30  NE2       21.5800   33.5750   16.5430 N.ar   40  HIS40      -0.2212
     31  N         16.4800   33.2290   12.4730 N.3    58  GLU58      -0.1245
     32  CA        16.5790   34.7050   12.5290 C.3    58  GLU58       0.1567
     33  C         17.8330   35.1290   11.7950 C.2    58  GLU58       0.2260
     34  O         18.8020   34.3790   11.8180 O.2    58  GLU58      -0.2867
     35  CB        16.6910   35.1690   13.9340 C.3    58  GLU58       0.0388
     36  CG        17.7850   34.5590   14.8110 C.3    58  GLU58       0.1160
     37  CD        17.8480   35.3450   16.0970 C.2    58  GLU58       0.3649
     38  OE1       17.6690   34.8710   17.1800 O.co2  58  GLU58      -0.2457
     39  OE2       18.1080   36.5400   15.9730 O.co2  58  GLU58      -0.2457
     40  N         28.8610   43.4320   14.0090 N.3    72  SER72      -0.1203
     41  CA        27.6750   43.6480   14.8570 C.3    72  SER72       0.2005
     42  C         26.3950   43.5260   14.0510 C.2    72  SER72       0.2461
     43  O         26.2700   44.1710   12.9930 O.2    72  SER72      -0.2732
     44  CB        27.7660   45.0120   15.5470 C.3    72  SER72       0.2103
     45  OG        26.5790   45.2630   16.3180 O.3    72  SER72      -0.2182
     46  N         25.4810   42.6970   14.5480 N.am   73  PRO73      -0.2717
     47  CA        24.1840   42.5030   13.8580 C.3    73  PRO73       0.1536
     48  C         23.1510   43.5770   14.1530 C.2    73  PRO73       0.2599
     49  O         22.0570   43.5230   13.5680 O.2    73  PRO73      -0.2715
     50  CB        23.6950   41.1610   14.4670 C.3    73  PRO73       0.0310
     51  CG        24.2870   41.1160   15.8300 C.3    73  PRO73       0.0237
     52  CD        25.6000   41.8880   15.7640 C.3    73  PRO73       0.0939
     53  N         23.4750   44.5240   15.0550 N.am   74  GLY74      -0.1941
     54  CA        22.5060   45.5930   15.4190 C.3    74  GLY74       0.2014
     55  C         21.3990   44.8910   16.2320 C.2    74  GLY74       0.2638
     56  O         21.4890   43.7790   16.7940 O.2    74  GLY74      -0.2714
     57  N         20.2470   45.5440   16.3300 N.am   75  ALA75      -0.1977
     58  CA        19.1170   45.0160   17.0870 C.3    75  ALA75       0.1597
     59  C         17.9650   44.3540   16.3600 C.2    75  ALA75       0.2287
     60  O         17.1550   43.7150   17.0210 O.2    75  ALA75      -0.2864
     61  CB        18.3900   46.3260   17.5890 C.3    75  ALA75       0.0319
     62  N         15.9210   41.9770   13.4680 N.3    77  ARG77      -0.1245
     63  CA        15.9860   40.6830   12.7920 C.3    77  ARG77       0.1563
     64  C         14.7480   40.3770   11.9760 C.2    77  ARG77       0.2260
     65  O         13.5860   40.7510   12.1780 O.2    77  ARG77      -0.2867
     66  CB        16.0200   39.5520   13.8580 C.3    77  ARG77       0.0307
     67  CG        17.0410   39.6770   14.9670 C.3    77  ARG77       0.0489
     68  CD        18.3960   39.3000   14.4300 C.3    77  ARG77       0.2205
     69  NE        19.3530   39.4150   15.5170 N.pl3  77  ARG77      -0.0865
     70  CZ        20.0510   40.4820   15.8900 C.cat  77  ARG77       0.5346
     71  NH1       19.9960   41.6010   15.1770 N.pl3  77  ARG77       0.1354
     72  NH2       20.8070   40.4930   16.9820 N.pl3  77  ARG77       0.1354
     73  N         15.3600   43.9800   19.3290 N.3    92  HIS92      -0.1226
     74  CA        15.7130   44.0080   20.7460 C.3    92  HIS92       0.1752
     75  C         15.4360   45.4410   21.2520 C.2    92  HIS92       0.2597
     76  O         15.4570   45.7040   22.4940 O.2    92  HIS92      -0.2718
     77  CB        17.2170   43.9110   20.9070 C.3    92  HIS92       0.0759
     78  CG        17.7140   42.5020   20.7660 C.ar   92  HIS92       0.0818
     79  ND1       17.1950   41.5520   21.5780 N.ar   92  HIS92      -0.2268
     80  CD2       18.6110   41.8770   19.9730 C.ar   92  HIS92       0.1154
     81  CE1       17.7560   40.4120   21.2880 C.ar   92  HIS92       0.1986
     82  NE2       18.6270   40.5610   20.3200 N.ar   92  HIS92      -0.2212
     83  N         15.2330   46.3730   20.3050 N.am   93  THR93      -0.1939
     84  CA        15.0050   47.7720   20.7290 C.3    93  THR93       0.2028
     85  C         13.7350   47.8920   21.5650 C.2    93  THR93       0.2643
     86  O         12.6950   47.4410   21.0560 O.2    93  THR93      -0.2714
     87  CB        14.9460   48.7490   19.4830 C.3    93  THR93       0.1808
     88  OG1       16.2850   48.6510   18.9550 O.3    93  THR93      -0.2208
     89  CG2       14.6330   50.2330   19.8160 C.3    93  THR93       0.0379
     90  N         13.8020   48.4840   22.7660 N.am   94  GLY94      -0.1939
     91  CA        12.5670   48.6040   23.5710 C.3    94  GLY94       0.2014
     92  C         12.1760   47.3190   24.2950 C.2    94  GLY94       0.2635
     93  O         11.0130   47.2510   24.7630 O.2    94  GLY94      -0.2714
     94  N         13.0650   46.3430   24.3750 N.am   95  ALA95      -0.2030
     95  CA        12.7700   45.0670   25.0740 C.3    95  ALA95       0.1283
     96  C         13.8480   44.8820   26.1420 C.3    95  ALA95       0.2036
     97  O         14.9830   45.2190   25.7570 O.3    95  ALA95      -0.2185
     98  CB        12.7270   43.8790   24.1370 C.3    95  ALA95       0.0262
     99  N         16.9960   43.4730   28.1810 N.3    97  GLY97      -0.1210
    100  CA        18.1430   42.6040   27.9310 C.3    97  GLY97       0.1956
    101  C         18.1240   42.1940   26.4480 C.2    97  GLY97       0.2611
    102  O         18.0200   43.0060   25.5190 O.2    97  GLY97      -0.2717
    103  N         18.2050   40.8670   26.3270 N.am   98  ASN98      -0.1974
    104  CA        18.2280   40.1920   25.0230 C.3    98  ASN98       0.1688
    105  C         16.8780   39.6780   24.5890 C.2    98  ASN98       0.2292
    106  O         16.7370   38.7990   23.7290 O.2    98  ASN98      -0.2864
    107  CB        19.3690   39.1690   25.0630 C.3    98  ASN98       0.1181
    108  CG        20.7320   39.8180   25.2500 C.2    98  ASN98       0.2629
    109  OD1       21.7250   39.2540   25.7530 O.2    98  ASN98      -0.2716
    110  ND2       21.0200   41.0780   24.8530 N.am   98  ASN98      -0.0877
    111  N         13.1090   40.2670   22.8040 N.3   100  PHE100     -0.1241
    112  CA        12.6560   40.8890   21.5660 C.3   100  PHE100      0.1605
    113  C         11.2210   41.3400   21.6840 C.2   100  PHE100      0.2264
    114  O         10.4710   40.8350   22.5350 O.2   100  PHE100     -0.2867
    115  CB        12.5080   39.8290   20.4380 C.3   100  PHE100      0.0534
    116  CG        13.8270   39.4520   19.8270 C.ar  100  PHE100     -0.0203
    117  CD1       14.4690   40.3280   18.9810 C.ar  100  PHE100     -0.0042
    118  CD2       14.3940   38.2070   20.0940 C.ar  100  PHE100     -0.0042
    119  CE1       15.6790   40.0600   18.3810 C.ar  100  PHE100     -0.0003
    120  CE2       15.6160   37.8880   19.5220 C.ar  100  PHE100     -0.0003
    121  CZ        16.1890   38.8360   18.6590 C.ar  100  PHE100     -0.0000
@<TRIPOS>BOND
     1    12    11    2
     2    11    10    1
     3    13    10    1
     4    13    14    1
     5    10     9    1
     6    33    34    2
     7    33    32    1
     8    64    65    2
     9    64    63    1
    10    31    32    1
    11    32    35    1
    12    21    22    1
    13    14    16   ar
    14    14    15   ar
    15    63    62    1
    16    63    66    1
    17    43    42    2
    18    16    18   ar
    19    15    17   ar
    20    22    23    1
    21    22    25    1
    22    49    48    2
    23    24    23    2
    24    47    48    1
    25    47    50    1
    26    47    46    1
    27    66    67    1
    28    35    36    1
    29    40    41    1
    30    42    46   am
    31    42    41    1
    32    48    53   am
    33    68    67    1
    34    68    69    1
    35    50    51    1
    36    18    19   ar
    37    46    52    1
    38    25    26    1
    39    17    19   ar
    40    36    37    1
    41    41    44    1
    42    53    54    1
    43    19    20    1
    44    71    70    1
    45    54    55    1
    46    26    28   ar
    47    26    27   ar
    48    69    70    2
    49    44    45    1
    50    28    30   ar
    51     3     4    2
    52     3     2    1
    53    52    51    1
    54    70    72    1
    55    39    37   ar
    56     1     2    1
    57    37    38   ar
    58    55    57   am
    59    55    56    2
    60    57    58    1
    61    27    29   ar
    62    59    60    2
    63    59    58    1
    64    30    29   ar
    65     2     5    1
    66    58    61    1
    67     5     6    1
    68   119   121   ar
    69   119   117   ar
    70     6     7    2
    71     6     8   am
    72   121   120   ar
    73    88    87    1
    74   117   116   ar
    75    73    74    1
    76    87    89    1
    77    87    84    1
    78   120   118   ar
    79   116   118   ar
    80   116   115    1
    81    80    82   ar
    82    80    78   ar
    83    83    84    1
    84    83    75   am
    85    82    81   ar
    86   115   112    1
    87    84    85    1
    88    74    77    1
    89    74    75    1
    90    78    77    1
    91    78    79   ar
    92    86    85    2
    93    75    76    2
    94    81    79   ar
    95    85    90   am
    96   112   113    1
    97   112   111    1
    98   113   114    2
    99    90    91    1
   100    91    92    1
   101   106   105    2
   102    98    95    1
   103    92    94   am
   104    92    93    2
   105    94    95    1
   106   105   104    1
   107   110   108   am
   108   104   107    1
   109   104   103    1
   110   107   108    1
   111    95    96    1
   112   108   109    2
   113   102   101    2
   114    97    96    1
   115   103   101   am
   116   101   100    1
   117   100    99    1
