@<TRIPOS>MOLECULE
tmp/2rolA00.pdb
 157 157 0 0 0
SMALL
GASTEIGER

@<TRIPOS>ATOM
      1  N         10.5160    9.7130   23.1930 N.3    14  TYR14      -0.1241
      2  CA         9.9560   10.9580   23.7500 C.3    14  TYR14       0.1605
      3  C          9.0420   11.6600   22.7270 C.2    14  TYR14       0.2264
      4  O          9.0840   11.3660   21.5300 O.2    14  TYR14      -0.2867
      5  CB        11.0830   11.9060   24.1950 C.3    14  TYR14       0.0534
      6  CG        12.0980   11.3080   25.1540 C.ar   14  TYR14      -0.0201
      7  CD1       11.8060   11.2060   26.5300 C.ar   14  TYR14      -0.0009
      8  CD2       13.3320   10.8390   24.6680 C.ar   14  TYR14      -0.0009
      9  CE1       12.7400   10.6300   27.4140 C.ar   14  TYR14       0.0417
     10  CE2       14.2690   10.2620   25.5420 C.ar   14  TYR14       0.0417
     11  CZ        13.9760   10.1530   26.9190 C.ar   14  TYR14       0.1957
     12  OH        14.8880    9.6020   27.7610 O.3    14  TYR14      -0.2866
     13  N          7.5240   15.2990   20.7770 N.3    16  PHE16      -0.1241
     14  CA         8.0190   16.5180   20.1230 C.3    16  PHE16       0.1605
     15  C          6.9040   17.2000   19.2960 C.2    16  PHE16       0.2264
     16  O          5.9150   16.5650   18.9280 O.2    16  PHE16      -0.2867
     17  CB         9.2070   16.1190   19.2280 C.3    16  PHE16       0.0534
     18  CG         9.9080   17.2570   18.5110 C.ar   16  PHE16      -0.0203
     19  CD1       10.4790   18.3200   19.2420 C.ar   16  PHE16      -0.0042
     20  CD2        9.9800   17.2580   17.1060 C.ar   16  PHE16      -0.0042
     21  CE1       11.1030   19.3860   18.5670 C.ar   16  PHE16      -0.0003
     22  CE2       10.6310   18.3070   16.4340 C.ar   16  PHE16      -0.0003
     23  CZ        11.1890   19.3720   17.1640 C.ar   16  PHE16      -0.0000
     24  N          7.6730   22.9800   15.1980 N.3    19  ARG19      -0.1231
     25  CA         7.7670   24.4360   15.3830 C.3    19  ARG19       0.1694
     26  C          8.0680   25.1620   14.0610 C.2    19  ARG19       0.2592
     27  O          7.9810   26.3890   14.0120 O.2    19  ARG19      -0.2718
     28  CB         8.8110   24.7220   16.4840 C.3    19  ARG19       0.0321
     29  CG         8.4560   24.0310   17.8240 C.3    19  ARG19       0.0489
     30  CD         9.6150   23.2290   18.4330 C.3    19  ARG19       0.2205
     31  NE        10.5880   24.0990   19.1260 N.pl3  19  ARG19      -0.0865
     32  CZ        10.5440   24.4910   20.3890 C.cat  19  ARG19       0.5346
     33  NH1        9.5770   24.1500   21.1980 N.pl3  19  ARG19       0.1354
     34  NH2       11.4840   25.2500   20.8750 N.pl3  19  ARG19       0.1354
     35  N          8.3720   24.4120   12.9900 N.am   20  ASN20      -0.1960
     36  CA         8.6370   24.9160   11.6280 C.3    20  ASN20       0.1819
     37  C          8.2110   23.9000   10.5370 C.2    20  ASN20       0.2622
     38  O          7.9060   22.7440   10.8320 O.2    20  ASN20      -0.2715
     39  CB        10.1410   25.2450   11.4980 C.3    20  ASN20       0.1195
     40  CG        10.5740   26.4660   12.2940 C.2    20  ASN20       0.2630
     41  OD1       10.2450   27.5980   11.9640 O.2    20  ASN20      -0.2716
     42  ND2       11.3470   26.2800   13.3400 N.am   20  ASN20      -0.0877
     43  N          8.2400   24.3130    9.2600 N.am   21  SER21      -0.1936
     44  CA         7.9470   23.4360    8.0990 C.3    21  SER21       0.2055
     45  C          9.0180   22.3650    7.8240 C.2    21  SER21       0.2643
     46  O          8.7290   21.3570    7.1760 O.2    21  SER21      -0.2714
     47  CB         7.7810   24.2600    6.8150 C.3    21  SER21       0.2130
     48  OG         6.6640   25.1350    6.8990 O.3    21  SER21      -0.2179
     49  N         10.2520   22.5670    8.3020 N.am   22  SER22      -0.1949
     50  CA        11.3650   21.6070    8.1770 C.3    22  SER22       0.1924
     51  C         11.2670   20.3960    9.1100 C.2    22  SER22       0.2314
     52  O         11.9950   19.4200    8.9480 O.2    22  SER22      -0.2863
     53  CB        12.6970   22.3280    8.4150 C.3    22  SER22       0.2116
     54  OG        12.6550   23.1050    9.6030 O.3    22  SER22      -0.2180
     55  N         23.2090   12.1350    9.6510 N.3    39  ARG39      -0.1231
     56  CA        23.4140   13.3760   10.4280 C.3    39  ARG39       0.1694
     57  C         22.6520   13.3600   11.7720 C.2    39  ARG39       0.2592
     58  O         21.9450   12.3970   12.0790 O.2    39  ARG39      -0.2718
     59  CB        22.9690   14.5770    9.5660 C.3    39  ARG39       0.0321
     60  CG        23.8930   14.8870    8.3780 C.3    39  ARG39       0.0489
     61  CD        23.6790   16.3290    7.8910 C.3    39  ARG39       0.2205
     62  NE        24.5930   16.6870    6.7860 N.pl3  39  ARG39      -0.0865
     63  CZ        25.8730   17.0180    6.8740 C.cat  39  ARG39       0.5346
     64  NH1       26.5230   17.0220    8.0060 N.pl3  39  ARG39       0.1354
     65  NH2       26.5370   17.3580    5.8070 N.pl3  39  ARG39       0.1354
     66  N         22.7850   14.4340   12.5680 N.am   40  LYS40      -0.1966
     67  CA        22.1220   14.6430   13.8790 C.3    40  LYS40       0.1728
     68  C         20.5860   14.5950   13.8330 C.2    40  LYS40       0.2616
     69  O         19.9530   14.2340   14.8230 O.2    40  LYS40      -0.2715
     70  CB        22.5140   16.0220   14.4490 C.3    40  LYS40       0.0311
     71  CG        24.0000   16.2840   14.7350 C.3    40  LYS40       0.0038
     72  CD        24.5340   15.5240   15.9540 C.3    40  LYS40       0.0206
     73  CE        25.9490   16.0210   16.2770 C.3    40  LYS40       0.1093
     74  NZ        26.5530   15.2690   17.4100 N.3    40  LYS40      -0.1314
     75  N         19.9780   14.9620   12.7080 N.am   41  TRP41      -0.1974
     76  CA        18.5250   14.9220   12.5170 C.3    41  TRP41       0.1640
     77  C         18.1940   13.9940   11.3520 C.2    41  TRP41       0.2290
     78  O         18.7680   14.1000   10.2640 O.2    41  TRP41      -0.2864
     79  CB        17.9610   16.3250   12.2800 C.3    41  TRP41       0.0576
     80  CG        17.9500   17.2540   13.4600 C.ar   41  TRP41       0.0006
     81  CD1       19.0300   17.7420   14.1140 C.ar   41  TRP41       0.0946
     82  CD2       16.7950   17.8470   14.1280 C.ar   41  TRP41       0.0152
     83  NE1       18.6250   18.5360   15.1690 N.ar   41  TRP41      -0.2442
     84  CE2       17.2510   18.6150   15.2390 C.ar   41  TRP41       0.0810
     85  CE3       15.4040   17.8270   13.8950 C.ar   41  TRP41       0.0012
     86  CZ2       16.3680   19.2700   16.1080 C.ar   41  TRP41       0.0191
     87  CZ3       14.5080   18.5130   14.7330 C.ar   41  TRP41       0.0001
     88  CH2       14.9850   19.2220   15.8520 C.ar   41  TRP41       0.0015
     89  N         15.5390   12.1310    8.6120 N.3    43  LYS43      -0.1245
     90  CA        14.3690   12.3750    7.7760 C.3    43  LYS43       0.1561
     91  C         13.4800   11.1540    7.8850 C.2    43  LYS43       0.2260
     92  O         13.8660   10.0750    7.4500 O.2    43  LYS43      -0.2867
     93  CB        14.8120   12.6610    6.3350 C.3    43  LYS43       0.0271
     94  CG        13.6370   13.2200    5.5280 C.3    43  LYS43       0.0035
     95  CD        14.0780   13.6040    4.1110 C.3    43  LYS43       0.0206
     96  CE        12.9050   14.2050    3.3270 C.3    43  LYS43       0.1093
     97  NZ        13.3470   14.7420    2.0110 N.3    43  LYS43      -0.1314
     98  N          6.3230   14.2660    5.9730 N.3    51  GLU51      -0.1231
     99  CA         7.7870   14.1010    5.9870 C.3    51  GLU51       0.1699
    100  C          8.4990   15.3740    6.4740 C.2    51  GLU51       0.2593
    101  O          8.0300   16.4980    6.2680 O.2    51  GLU51      -0.2718
    102  CB         8.3190   13.7480    4.5880 C.3    51  GLU51       0.0402
    103  CG         7.6950   12.4920    3.9600 C.3    51  GLU51       0.1161
    104  CD         7.4700   12.6700    2.4470 C.2    51  GLU51       0.3649
    105  OE1        6.4480   13.2900    2.0520 O.co2  51  GLU51      -0.2457
    106  OE2        8.2940   12.1860    1.6380 O.co2  51  GLU51      -0.2457
    107  N          9.6540   15.1880    7.1110 N.am   52  GLY52      -0.1942
    108  CA        10.4350   16.2490    7.7480 C.3    52  GLY52       0.2014
    109  C         11.5100   15.6770    8.6700 C.2    52  GLY52       0.2638
    110  O         11.7740   14.4710    8.6620 O.2    52  GLY52      -0.2714
    111  N         12.1220   16.5430    9.4760 N.am   53  TYR53      -0.1973
    112  CA        13.2670   16.1950   10.3130 C.3    53  TYR53       0.1639
    113  C         12.8760   16.0940   11.7900 C.2    53  TYR53       0.2290
    114  O         12.0820   16.8900   12.3010 O.2    53  TYR53      -0.2864
    115  CB        14.3930   17.2170   10.0910 C.3    53  TYR53       0.0560
    116  CG        15.0550   17.1400    8.7240 C.ar   53  TYR53      -0.0198
    117  CD1       15.8570   16.0280    8.3970 C.ar   53  TYR53      -0.0009
    118  CD2       14.8970   18.1850    7.7910 C.ar   53  TYR53      -0.0009
    119  CE1       16.4890   15.9550    7.1410 C.ar   53  TYR53       0.0417
    120  CE2       15.5270   18.1170    6.5330 C.ar   53  TYR53       0.0417
    121  CZ        16.3230   16.9970    6.2030 C.ar   53  TYR53       0.1957
    122  OH        16.9280   16.9190    4.9860 O.3    53  TYR53      -0.2866
    123  N         14.9540   14.9000   15.8290 N.3    55  PRO55      -0.2102
    124  CA        16.2390   14.6890   16.4880 C.3    55  PRO55       0.1504
    125  C         16.4990   13.1980   16.7230 C.2    55  PRO55       0.2576
    126  O         15.6520   12.4940   17.2730 O.2    55  PRO55      -0.2718
    127  CB        16.1260   15.4750   17.8010 C.3    55  PRO55       0.0282
    128  CG        14.6350   15.4650   18.1230 C.3    55  PRO55       0.0208
    129  CD        14.0150   15.5500   16.7330 C.3    55  PRO55       0.0893
    130  N         17.6950   12.7100   16.3830 N.am   56  TYR56      -0.1963
    131  CA        18.0580   11.3000   16.6230 C.3    56  TYR56       0.1771
    132  C         18.0220   10.8850   18.1040 C.2    56  TYR56       0.2620
    133  O         17.9270    9.6970   18.4070 O.2    56  TYR56      -0.2715
    134  CB        19.4310   10.9690   16.0190 C.3    56  TYR56       0.0574
    135  CG        20.6420   11.2910   16.8930 C.ar   56  TYR56      -0.0198
    136  CD1       20.8830   12.6100   17.3210 C.ar   56  TYR56      -0.0009
    137  CD2       21.5220   10.2670   17.3000 C.ar   56  TYR56      -0.0009
    138  CE1       21.9960   12.9290   18.1220 C.ar   56  TYR56       0.0417
    139  CE2       22.6340   10.5700   18.1140 C.ar   56  TYR56       0.0417
    140  CZ        22.8770   11.9020   18.5220 C.ar   56  TYR56       0.1957
    141  OH        23.9530   12.1990   19.3000 O.3    56  TYR56      -0.2866
    142  N         18.0690   11.8530   19.0290 N.am   57  ASN57      -0.1958
    143  CA        18.0490   11.6030   20.4710 C.3    57  ASN57       0.1819
    144  C         16.7560   10.9000   20.9280 C.2    57  ASN57       0.2621
    145  O         16.7970    9.9880   21.7590 O.2    57  ASN57      -0.2715
    146  CB        18.2420   12.9590   21.1730 C.3    57  ASN57       0.1195
    147  CG        18.7180   12.8170   22.6100 C.2    57  ASN57       0.2630
    148  OD1       18.1550   12.1160   23.4370 O.2    57  ASN57      -0.2716
    149  ND2       19.7840   13.4980   22.9510 N.am   57  ASN57      -0.0877
    150  N         15.6130   11.2850   20.3420 N.am   58  ILE58      -0.1977
    151  CA        14.3040   10.6910   20.6630 C.3    58  ILE58       0.1596
    152  C         14.0140    9.4420   19.8240 C.2    58  ILE58       0.2287
    153  O         13.0120    8.7800   20.0720 O.2    58  ILE58      -0.2864
    154  CB        13.1490   11.7270   20.5980 C.3    58  ILE58       0.0276
    155  CG1       12.6840   12.0160   19.1510 C.3    58  ILE58       0.0022
    156  CG2       13.5660   13.0160   21.3380 C.3    58  ILE58       0.0022
    157  CD1       11.5840   13.0780   19.0260 C.3    58  ILE58       0.0001
@<TRIPOS>BOND
     1   106   104   ar
     2    97    96    1
     3   105   104   ar
     4   104   103    1
     5    96    95    1
     6   103   102    1
     7    95    94    1
     8   102    99    1
     9   122   121    1
    10    94    93    1
    11    65    63    1
    12    98    99    1
    13    99   100    1
    14   121   120   ar
    15   121   119   ar
    16   101   100    2
    17    93    90    1
    18   100   107   am
    19   120   118   ar
    20    62    63    2
    21    62    61    1
    22    47    48    1
    23    47    44    1
    24    63    64    1
    25   107   108    1
    26   119   117   ar
    27    46    45    2
    28    92    91    2
    29   108   109    1
    30    90    91    1
    31    90    89    1
    32   118   116   ar
    33    45    44    1
    34    45    49   am
    35    61    60    1
    36    44    43    1
    37    50    49    1
    38    50    53    1
    39    50    51    1
    40    60    59    1
    41   117   116   ar
    42    53    54    1
    43   110   109    2
    44   109   111   am
    45   116   115    1
    46    52    51    2
    47    43    37   am
    48   111   112    1
    49    59    56    1
    50    55    56    1
    51   115   112    1
    52    78    77    2
    53   112   113    1
    54    56    57    1
    55    37    38    2
    56    37    36    1
    57    77    76    1
    58    39    36    1
    59    39    40    1
    60    36    35    1
    61    57    58    2
    62    57    66   am
    63   113   114    2
    64    41    40    2
    65    79    76    1
    66    79    80    1
    67    40    42   am
    68    76    75    1
    69    66    67    1
    70    75    68   am
    71    35    26   am
    72    80    81   ar
    73    80    82   ar
    74    68    67    1
    75    68    69    2
    76    67    70    1
    77    85    82   ar
    78    85    87   ar
    79    27    26    2
    80    26    25    1
    81    81    83   ar
    82    82    84   ar
    83    70    71    1
    84    87    88   ar
    85    71    72    1
    86    83    84   ar
    87    24    25    1
    88    84    86   ar
    89    25    28    1
    90   123   124    1
    91   123   129    1
    92    88    86   ar
    93    72    73    1
    94   134   131    1
    95   134   135    1
    96    73    74    1
    97   130   131    1
    98   130   125   am
    99    22    20   ar
   100    22    23   ar
   101    28    29    1
   102   124   125    1
   103   124   127    1
   104   131   132    1
   105   125   126    2
   106   129   128    1
   107   135   137   ar
   108   135   136   ar
   109    20    18   ar
   110    23    21   ar
   111   137   139   ar
   112   136   138   ar
   113   127   128    1
   114    29    30    1
   115   132   133    2
   116   132   142   am
   117   139   140   ar
   118   138   140   ar
   119    30    31    1
   120    18    17    1
   121    18    19   ar
   122   140   141    1
   123    21    19   ar
   124    16    15    2
   125   157   155    1
   126   142   143    1
   127    31    32    2
   128   155   154    1
   129    17    14    1
   130    15    14    1
   131   152   153    2
   132   152   151    1
   133    14    13    1
   134   150   151    1
   135   150   144   am
   136    32    34    1
   137    32    33    1
   138   143   144    1
   139   143   146    1
   140   154   151    1
   141   154   156    1
   142   144   145    2
   143   146   147    1
   144     4     3    2
   145   147   149   am
   146   147   148    2
   147     3     2    1
   148     1     2    1
   149     2     5    1
   150     5     6    1
   151     8     6   ar
   152     8    10   ar
   153     6     7   ar
   154    10    11   ar
   155     7     9   ar
   156    11     9   ar
   157    11    12    1
