@<TRIPOS>MOLECULE
tmp/2royA00.pdb
 86 78 0 0 0
SMALL
GASTEIGER

@<TRIPOS>ATOM
      1  N         18.1320   32.0240   -0.4530 N.3     7  MET7       -0.1245
      2  CA        19.4390   32.7360   -0.6740 C.3     7  MET7        0.1570
      3  C         19.9890   33.1130    0.6710 C.2     7  MET7        0.2261
      4  O         19.2740   33.4350    1.5700 O.2     7  MET7       -0.2867
      5  CB        19.1300   33.7250   -1.7390 C.3     7  MET7        0.0387
      6  CG        19.1180   35.1240   -1.1950 C.3     7  MET7        0.0595
      7  SD        19.2820   36.0000   -2.8040 S.3     7  MET7       -0.1393
      8  CE        17.9410   35.1080   -3.6670 C.3     7  MET7        0.0692
      9  N         22.9810   35.3160    2.9280 N.3     9  LYS9       -0.1298
     10  CA        23.8910   36.5040    2.8970 C.3     9  LYS9        0.1290
     11  C         24.5410   36.6460    4.2550 C.3     9  LYS9        0.2013
     12  O         23.7530   36.6450    5.1680 O.3     9  LYS9       -0.2188
     13  CB        23.0250   37.6700    2.4600 C.3     9  LYS9        0.0474
     14  CG        23.5740   39.0900    2.3620 C.2     9  LYS9       -0.0276
     15  CD        24.8480   39.3000    1.5780 C.2     9  LYS9       -0.0103
     16  CE        25.3820   40.7070    1.4900 C.3     9  LYS9        0.1350
     17  NZ        26.6250   40.6970    0.6370 N.3     9  LYS9       -0.1262
     18  N         27.6640   38.6360    6.5770 N.3    11  LEU11      -0.1301
     19  CA        28.4940   39.8600    6.6300 C.3    11  LEU11       0.1247
     20  C         29.3930   39.6750    7.8540 C.3    11  LEU11       0.2009
     21  O         28.9020   39.0280    8.7480 O.3    11  LEU11      -0.2188
     22  CB        27.5250   41.0590    6.7510 C.3    11  LEU11       0.0217
     23  CG        26.7830   41.5910    5.5580 C.3    11  LEU11       0.0015
     24  CD1       26.1220   42.9140    5.9060 C.3    11  LEU11       0.0000
     25  CD2       27.7980   41.8430    4.4290 C.3    11  LEU11       0.0000
     26  N         27.3100   35.9400   -0.3870 N.3    48  GLU48      -0.1245
     27  CA        26.0340   35.3260   -0.7670 C.3    48  GLU48       0.1567
     28  C         26.1890   33.8880   -1.2830 C.2    48  GLU48       0.2260
     29  O         27.2330   33.5790   -1.8210 O.2    48  GLU48      -0.2867
     30  CB        25.4190   36.0980   -1.9410 C.3    48  GLU48       0.0388
     31  CG        25.1220   37.5510   -1.6940 C.3    48  GLU48       0.1160
     32  CD        24.6720   38.2950   -2.9260 C.2    48  GLU48       0.3649
     33  OE1       24.7210   37.8060   -4.0470 O.co2  48  GLU48      -0.2457
     34  OE2       24.2590   39.4380   -2.6520 O.co2  48  GLU48      -0.2457
     35  N         15.3400   34.8840    2.1710 N.3   100  THR100     -0.1274
     36  CA        16.6990   35.4080    2.2430 C.3   100  THR100      0.1548
     37  C         17.0960   35.3290    3.7040 C.3   100  THR100      0.2036
     38  O         16.4090   36.1190    4.3650 O.3   100  THR100     -0.2187
     39  CB        16.8140   36.8930    1.7450 C.3   100  THR100      0.1721
     40  OG1       16.4140   36.9000    0.3300 O.3   100  THR100     -0.2215
     41  CG2       18.1910   37.4890    1.9750 C.3   100  THR100      0.0371
     42  N         19.9640   36.3820    6.1700 N.3   102  ALA102     -0.1231
     43  CA        21.1680   37.1640    6.3540 C.3   102  ALA102      0.1694
     44  C         21.6690   36.8890    7.7740 C.2   102  ALA102      0.2592
     45  O         20.8170   36.7750    8.6370 O.2   102  ALA102     -0.2718
     46  CB        20.9060   38.6570    6.4120 C.3   102  ALA102      0.0304
     47  N         22.9230   36.8070    8.0190 N.am  103  ALA103     -0.1966
     48  CA        23.5880   36.5870    9.3290 C.3   103  ALA103      0.1728
     49  C         24.6720   37.6500    9.3710 C.2   103  ALA103      0.2616
     50  O         25.3400   37.9360    8.3780 O.2   103  ALA103     -0.2715
     51  CB        24.0680   35.1500    9.3420 C.3   103  ALA103      0.0334
     52  N         24.8210   38.4300   10.4230 N.am  104  LEU104     -0.1977
     53  CA        25.7990   39.4620   10.6200 C.3   104  LEU104      0.1596
     54  C         26.6710   38.9030   11.7430 C.2   104  LEU104      0.2287
     55  O         26.1260   38.6980   12.8200 O.2   104  LEU104     -0.2864
     56  CB        25.1670   40.8490   10.9170 C.3   104  LEU104      0.0297
     57  CG        26.2430   41.8130   11.4250 C.3   104  LEU104      0.0022
     58  CD1       27.2740   42.1090   10.3350 C.3   104  LEU104      0.0001
     59  CD2       25.6660   43.0820   12.0510 C.3   104  LEU104      0.0001
     60  N         23.8420   38.4130   14.7160 N.3   111  SER111     -0.1202
     61  CA        22.3860   38.7530   14.6180 C.3   111  SER111      0.2020
     62  C         21.8490   38.0310   13.4190 C.2   111  SER111      0.2619
     63  O         22.6410   37.5020   12.6250 O.2   111  SER111     -0.2717
     64  CB        22.1030   40.2270   14.6660 C.3   111  SER111      0.2103
     65  OG        22.8620   40.9650   13.7890 O.3   111  SER111     -0.2182
     66  N         20.5860   37.8780   13.1260 N.am  112  THR112     -0.1938
     67  CA        20.1770   37.1790   11.8950 C.3   112  THR112      0.2028
     68  C         18.7420   37.5750   11.6220 C.2   112  THR112      0.2642
     69  O         17.9470   37.6520   12.5760 O.2   112  THR112     -0.2714
     70  CB        20.3020   35.6400   11.9730 C.3   112  THR112      0.1808
     71  OG1       19.8890   35.0600   10.6920 O.3   112  THR112     -0.2208
     72  CG2       19.4050   35.1250   13.1080 C.3   112  THR112      0.0379
     73  N         18.4900   37.8320   10.3260 N.am  113  THR113     -0.1950
     74  CA        17.1300   38.2350    9.9860 C.3   113  THR113      0.1897
     75  C         16.6150   37.5150    8.7670 C.2   113  THR113      0.2313
     76  O         17.3930   36.8880    8.0590 O.2   113  THR113     -0.2863
     77  CB        17.1090   39.8030    9.7990 C.3   113  THR113      0.1794
     78  OG1       15.6750   40.1450    9.7650 O.3   113  THR113     -0.2208
     79  CG2       17.8380   40.2810    8.5600 C.3   113  THR113      0.0378
     80  N         14.1070   37.8180    5.1800 N.3   115  VAL115     -0.1301
     81  CA        13.3250   38.6370    4.2540 C.3   115  VAL115      0.1246
     82  C         12.5220   37.5770    3.5000 C.3   115  VAL115      0.2009
     83  O         13.2210   36.6450    3.1010 O.3   115  VAL115     -0.2188
     84  CB        14.1430   39.5310    3.3240 C.3   115  VAL115      0.0202
     85  CG1       13.2540   40.4440    2.4640 C.3   115  VAL115      0.0016
     86  CG2       15.0240   40.3960    4.1800 C.3   115  VAL115      0.0016
@<TRIPOS>BOND
     1    33    32   ar
     2     8     7    1
     3    32    34   ar
     4    32    31    1
     5     7     6    1
     6    30    31    1
     7    30    27    1
     8    29    28    2
     9     5     6    1
    10     5     2    1
    11    28    27    1
    12    27    26    1
    13     2     1    1
    14     2     3    1
    15    40    39    1
    16    17    16    1
    17     3     4    2
    18    16    15    1
    19    15    14    2
    20    39    41    1
    21    39    36    1
    22    35    36    1
    23    36    37    1
    24    14    13    1
    25    13    10    1
    26    85    84    1
    27    10     9    1
    28    10    11    1
    29    83    82    1
    30    84    86    1
    31    84    81    1
    32    82    81    1
    33    37    38    1
    34    81    80    1
    35    11    12    1
    36    25    23    1
    37    23    24    1
    38    23    22    1
    39    42    43    1
    40    43    46    1
    41    43    44    1
    42    18    19    1
    43    19    22    1
    44    19    20    1
    45    44    47   am
    46    44    45    2
    47    20    21    1
    48    47    48    1
    49    76    75    2
    50    50    49    2
    51    79    77    1
    52    75    74    1
    53    48    51    1
    54    48    49    1
    55    49    52   am
    56    78    77    1
    57    77    74    1
    58    74    73    1
    59    73    68   am
    60    58    57    1
    61    52    53    1
    62    53    56    1
    63    53    54    1
    64    71    70    1
    65    56    57    1
    66    57    59    1
    67    68    67    1
    68    68    69    2
    69    54    55    2
    70    67    70    1
    71    67    66    1
    72    70    72    1
    73    63    62    2
    74    66    62   am
    75    62    61    1
    76    65    64    1
    77    61    64    1
    78    61    60    1
