@<TRIPOS>MOLECULE
tmp/2rpqA00.pdb
 181 177 0 0 0
SMALL
GASTEIGER

@<TRIPOS>ATOM
      1  N         68.9390   37.3420   45.0640 N.3     1  MET1       -0.1230
      2  CA        68.6070   38.1980   43.9000 C.3     1  MET1        0.1702
      3  C         69.7090   38.1840   42.8880 C.2     1  MET1        0.2592
      4  O         69.8350   37.2220   42.1320 O.2     1  MET1       -0.2718
      5  CB        68.2780   39.6260   44.3830 C.3     1  MET1        0.0401
      6  CG        66.9990   39.7560   45.2180 C.3     1  MET1        0.0596
      7  SD        65.5000   39.2520   44.3220 S.3     1  MET1       -0.1393
      8  CE        64.3660   39.8810   45.5920 C.3     1  MET1        0.0692
      9  N         70.5720   39.2170   42.8320 N.am    2  ALA2       -0.1966
     10  CA        71.7140   39.2250   41.9620 C.3     2  ALA2        0.1728
     11  C         72.9260   38.6480   42.6260 C.2     2  ALA2        0.2616
     12  O         73.9580   38.4120   41.9980 O.2     2  ALA2       -0.2715
     13  CB        72.0070   40.6740   41.5330 C.3     2  ALA2        0.0334
     14  N         72.8310   38.3800   43.9400 N.am    3  ASP3       -0.1957
     15  CA        73.8240   37.7890   44.7860 C.3     3  ASP3        0.1840
     16  C         73.9250   36.3000   44.6510 C.2     3  ASP3        0.2622
     17  O         73.0120   35.6140   44.1930 O.2     3  ASP3       -0.2715
     18  CB        73.5480   38.2120   46.2440 C.3     3  ASP3        0.1450
     19  CG        72.1550   37.8250   46.7160 C.2     3  ASP3        0.3671
     20  OD1       71.1480   38.3380   46.1590 O.co2   3  ASP3       -0.2456
     21  OD2       72.0540   37.0050   47.6670 O.co2   3  ASP3       -0.2456
     22  N         75.0720   35.7280   45.0600 N.am    4  GLU4       -0.1963
     23  CA        75.2960   34.3130   45.0980 C.3     4  GLU4        0.1733
     24  C         74.9650   33.7900   46.4610 C.2     4  GLU4        0.2616
     25  O         75.3830   34.3380   47.4810 O.2     4  GLU4       -0.2715
     26  CB        76.7640   34.0090   44.7410 C.3     4  GLU4        0.0429
     27  CG        77.0770   32.5240   44.5130 C.3     4  GLU4        0.1163
     28  CD        76.4030   31.9850   43.2630 C.2     4  GLU4        0.3649
     29  OE1       76.8280   32.3370   42.1310 O.co2   4  GLU4       -0.2457
     30  OE2       75.4330   31.1900   43.3740 O.co2   4  GLU4       -0.2457
     31  N         74.1620   32.7140   46.5470 N.am    5  LYS5       -0.1977
     32  CA        73.7130   32.1620   47.7930 C.3     5  LYS5        0.1596
     33  C         74.6280   31.0840   48.2970 C.2     5  LYS5        0.2287
     34  O         74.9540   30.1850   47.5210 O.2     5  LYS5       -0.2864
     35  CB        72.2820   31.6100   47.6420 C.3     5  LYS5        0.0298
     36  CG        71.5970   31.3020   48.9770 C.3     5  LYS5        0.0038
     37  CD        70.1850   30.7360   48.8020 C.3     5  LYS5        0.0206
     38  CE        69.4950   30.4830   50.1450 C.3     5  LYS5        0.1093
     39  NZ        68.1580   29.8860   49.9430 N.3     5  LYS5       -0.1314
     40  N         64.6250   23.4030   50.6620 N.3    14  ASN14      -0.1225
     41  CA        63.2090   23.4680   50.8930 C.3    14  ASN14       0.1785
     42  C         62.2460   23.0240   49.8330 C.2    14  ASN14       0.2597
     43  O         61.8370   23.7950   48.9660 O.2    14  ASN14      -0.2718
     44  CB        62.7940   24.8040   51.5410 C.3    14  ASN14       0.1169
     45  CG        63.3570   26.0440   50.8580 C.2    14  ASN14       0.2627
     46  OD1       64.0700   26.8330   51.4800 O.2    14  ASN14      -0.2716
     47  ND2       62.9920   26.2780   49.5720 N.am   14  ASN14      -0.0877
     48  N         61.8540   21.7380   49.8830 N.am   15  ASN15      -0.1974
     49  CA        60.9110   21.0900   49.0170 C.3    15  ASN15       0.1688
     50  C         61.5280   20.7050   47.7080 C.2    15  ASN15       0.2292
     51  O         60.9370   20.8510   46.6390 O.2    15  ASN15      -0.2864
     52  CB        59.5740   21.8510   48.9140 C.3    15  ASN15       0.1181
     53  CG        58.4290   20.9760   48.4210 C.2    15  ASN15       0.2629
     54  OD1       58.1680   19.8930   48.9430 O.2    15  ASN15      -0.2716
     55  ND2       57.6990   21.4650   47.3860 N.am   15  ASN15      -0.0877
     56  N         64.4630   21.5290   46.0280 N.3    17  HIS17      -0.1241
     57  CA        65.1930   22.3830   45.1390 C.3    17  HIS17       0.1621
     58  C         66.6630   22.0790   45.1240 C.2    17  HIS17       0.2264
     59  O         67.2990   21.9030   46.1630 O.2    17  HIS17      -0.2867
     60  CB        64.9670   23.8850   45.4060 C.3    17  HIS17       0.0745
     61  CG        63.5400   24.3310   45.5780 C.ar   17  HIS17       0.0817
     62  ND1       63.1720   25.6270   45.3290 N.ar   17  HIS17      -0.2268
     63  CD2       62.4210   23.7050   46.0300 C.ar   17  HIS17       0.1154
     64  CE1       61.8870   25.7830   45.5900 C.ar   17  HIS17       0.1986
     65  NE2       61.4060   24.6270   46.0090 N.ar   17  HIS17      -0.2212
     66  N         74.8440   28.8200   31.6870 N.3    30  VAL30      -0.1231
     67  CA        73.9290   29.4130   32.6240 C.3    30  VAL30       0.1692
     68  C         73.4360   28.3790   33.5900 C.2    30  VAL30       0.2592
     69  O         73.2040   27.2290   33.2160 O.2    30  VAL30      -0.2718
     70  CB        72.8400   30.2490   31.9940 C.3    30  VAL30       0.0266
     71  CG1       71.5250   29.5340   31.6410 C.3    30  VAL30       0.0020
     72  CG2       72.4090   31.3830   32.9360 C.3    30  VAL30       0.0020
     73  N         73.3220   28.7120   34.8900 N.am   31  GLN31      -0.1966
     74  CA        72.7550   27.8460   35.8870 C.3    31  GLN31       0.1733
     75  C         71.3720   28.2500   36.2820 C.2    31  GLN31       0.2616
     76  O         70.9240   29.3840   36.1160 O.2    31  GLN31      -0.2715
     77  CB        73.6490   27.6520   37.1270 C.3    31  GLN31       0.0408
     78  CG        73.7290   28.7520   38.1990 C.3    31  GLN31       0.0908
     79  CD        72.4970   28.9990   39.0670 C.2    31  GLN31       0.2608
     80  OE1       72.0550   30.1310   39.2620 O.2    31  GLN31      -0.2717
     81  NE2       71.9150   27.9140   39.6390 N.am   31  GLN31      -0.0878
     82  N         70.6380   27.2720   36.8360 N.am   32  PHE32      -0.1960
     83  CA        69.2510   27.3890   37.1630 C.3    32  PHE32       0.1771
     84  C         69.0000   26.6040   38.4130 C.2    32  PHE32       0.2619
     85  O         69.7130   25.6440   38.7000 O.2    32  PHE32      -0.2715
     86  CB        68.3380   26.8810   36.0290 C.3    32  PHE32       0.0574
     87  CG        68.9090   26.8740   34.6490 C.ar   32  PHE32      -0.0200
     88  CD1       69.8680   25.9450   34.2880 C.ar   32  PHE32      -0.0042
     89  CD2       68.4020   27.7110   33.6730 C.ar   32  PHE32      -0.0042
     90  CE1       70.3550   25.8890   32.9980 C.ar   32  PHE32      -0.0003
     91  CE2       68.8720   27.6490   32.3760 C.ar   32  PHE32      -0.0003
     92  CZ        69.8470   26.7330   32.0300 C.ar   32  PHE32      -0.0000
     93  N         67.9890   26.9770   39.2180 N.am   33  LYS33      -0.1963
     94  CA        67.6650   26.3740   40.4790 C.3    33  LYS33       0.1728
     95  C         66.2370   25.9420   40.3960 C.2    33  LYS33       0.2616
     96  O         65.3370   26.7560   40.1830 O.2    33  LYS33      -0.2715
     97  CB        67.8760   27.2840   41.7050 C.3    33  LYS33       0.0311
     98  CG        67.5170   26.5800   43.0200 C.3    33  LYS33       0.0038
     99  CD        68.1040   27.1940   44.2960 C.3    33  LYS33       0.0206
    100  CE        67.8460   28.6910   44.4750 C.3    33  LYS33       0.1093
    101  NZ        68.2320   29.1000   45.8430 N.3    33  LYS33      -0.1314
    102  N         66.0490   24.6170   40.5290 N.am   34  ILE34      -0.1963
    103  CA        64.9660   23.8210   40.0340 C.3    34  ILE34       0.1727
    104  C         64.6270   22.7270   40.9840 C.2    34  ILE34       0.2616
    105  O         65.3820   22.2970   41.8530 O.2    34  ILE34      -0.2715
    106  CB        65.1860   23.2400   38.6620 C.3    34  ILE34       0.0290
    107  CG1       64.0760   22.3970   38.0000 C.3    34  ILE34       0.0022
    108  CG2       66.5340   22.4980   38.6440 C.3    34  ILE34       0.0023
    109  CD1       64.1880   22.3030   36.4780 C.3    34  ILE34       0.0001
    110  N         63.3570   22.3250   40.8550 N.am   35  LYS35      -0.1977
    111  CA        62.7550   21.3190   41.6780 C.3    35  LYS35       0.1596
    112  C         62.6600   20.0040   40.9790 C.2    35  LYS35       0.2287
    113  O         62.7390   19.8890   39.7570 O.2    35  LYS35      -0.2864
    114  CB        61.4080   21.7780   42.2570 C.3    35  LYS35       0.0298
    115  CG        61.6070   23.1010   43.0010 C.3    35  LYS35       0.0038
    116  CD        61.1500   24.3290   42.2090 C.3    35  LYS35       0.0206
    117  CE        59.6280   24.4090   42.3310 C.3    35  LYS35       0.1093
    118  NZ        59.1350   25.7120   41.8450 N.3    35  LYS35      -0.1314
    119  N         60.6960   17.2180   40.4480 N.3    37  HIS37      -0.1226
    120  CA        59.7360   16.7430   39.4930 C.3    37  HIS37       0.1752
    121  C         59.5820   17.6160   38.2860 C.2    37  HIS37       0.2597
    122  O         59.0130   17.1890   37.2820 O.2    37  HIS37      -0.2718
    123  CB        58.3520   16.5450   40.1430 C.3    37  HIS37       0.0759
    124  CG        57.5860   17.7930   40.4800 C.ar   37  HIS37       0.0818
    125  ND1       57.1170   18.0720   41.7360 N.ar   37  HIS37      -0.2268
    126  CD2       57.1370   18.7870   39.6710 C.ar   37  HIS37       0.1154
    127  CE1       56.4150   19.1910   41.7000 C.ar   37  HIS37       0.1986
    128  NE2       56.4250   19.6480   40.4620 N.ar   37  HIS37      -0.2212
    129  N         60.0260   18.8860   38.3440 N.am   38  THR38      -0.1939
    130  CA        59.8730   19.8720   37.3080 C.3    38  THR38       0.2013
    131  C         60.5580   19.4680   36.0380 C.2    38  THR38       0.2484
    132  O         61.7180   19.0670   36.1250 O.2    38  THR38      -0.2729
    133  CB        60.4440   21.2060   37.7160 C.3    38  THR38       0.1807
    134  OG1       59.9220   21.6510   38.9600 O.3    38  THR38      -0.2208
    135  CG2       60.1600   22.3310   36.7070 C.3    38  THR38       0.0379
    136  N         60.0150   19.5110   34.8490 N.am   39  PRO39      -0.2726
    137  CA        60.7200   19.0850   33.6670 C.3    39  PRO39       0.1402
    138  C         61.8920   19.9360   33.2910 C.2    39  PRO39       0.2269
    139  O         61.9780   21.1160   33.6330 O.2    39  PRO39      -0.2865
    140  CB        59.6600   19.0910   32.5650 C.3    39  PRO39       0.0296
    141  CG        58.6300   20.1220   33.0450 C.3    39  PRO39       0.0237
    142  CD        58.6380   19.8920   34.5620 C.3    39  PRO39       0.0939
    143  N         62.5160   21.0970   30.3970 N.3    41  SER41      -0.1202
    144  CA        62.0090   22.1790   29.6030 C.3    41  SER41       0.2020
    145  C         61.9530   23.5030   30.3030 C.2    41  SER41       0.2619
    146  O         62.0780   24.5380   29.6490 O.2    41  SER41      -0.2717
    147  CB        60.6220   21.8630   29.0090 C.3    41  SER41       0.2103
    148  OG        59.6580   21.5730   30.0130 O.3    41  SER41      -0.2182
    149  N         61.7830   23.5720   31.6400 N.am   42  LYS42      -0.1965
    150  CA        61.6380   24.8420   32.2930 C.3    42  LYS42       0.1728
    151  C         62.9270   25.5980   32.3140 C.2    42  LYS42       0.2616
    152  O         63.0000   26.7850   31.9990 O.2    42  LYS42      -0.2715
    153  CB        61.1340   24.7040   33.7420 C.3    42  LYS42       0.0311
    154  CG        60.9070   26.0090   34.5180 C.3    42  LYS42       0.0038
    155  CD        59.7950   26.9290   33.9970 C.3    42  LYS42       0.0206
    156  CE        60.2230   28.0170   33.0050 C.3    42  LYS42       0.1093
    157  NZ        59.0590   28.7760   32.5020 N.3    42  LYS42      -0.1314
    158  N         64.0310   24.9000   32.6390 N.am   43  LEU43      -0.1977
    159  CA        65.3340   25.4950   32.5950 C.3    43  LEU43       0.1596
    160  C         65.7520   25.8260   31.1940 C.2    43  LEU43       0.2287
    161  O         66.3770   26.8530   30.9390 O.2    43  LEU43      -0.2864
    162  CB        66.4000   24.6590   33.3270 C.3    43  LEU43       0.0297
    163  CG        66.7370   23.2900   32.7140 C.3    43  LEU43       0.0022
    164  CD1       68.1950   23.2050   32.2380 C.3    43  LEU43       0.0001
    165  CD2       66.3080   22.1320   33.6290 C.3    43  LEU43       0.0001
    166  N         64.0970   29.0520   30.1700 N.3    46  ALA46      -0.1245
    167  CA        64.8340   30.0410   30.9050 C.3    46  ALA46       0.1562
    168  C         66.1780   30.3650   30.3240 C.2    46  ALA46       0.2260
    169  O         66.6100   31.5160   30.2900 O.2    46  ALA46      -0.2867
    170  CB        64.9770   29.6000   32.3720 C.3    46  ALA46       0.0290
    171  N         67.4450   34.1490   29.0640 N.3    50  ARG50      -0.1245
    172  CA        68.6210   34.7710   29.6010 C.3    50  ARG50       0.1563
    173  C         69.7640   34.8870   28.6430 C.2    50  ARG50       0.2260
    174  O         70.4330   35.9170   28.5700 O.2    50  ARG50      -0.2867
    175  CB        69.0900   34.0440   30.8760 C.3    50  ARG50       0.0307
    176  CG        68.3100   34.4710   32.1270 C.3    50  ARG50       0.0489
    177  CD        66.9660   33.7610   32.2970 C.3    50  ARG50       0.2205
    178  NE        66.2590   34.4090   33.4400 N.pl3  50  ARG50      -0.0865
    179  CZ        65.2340   33.8500   34.1310 C.cat  50  ARG50       0.5346
    180  NH1       64.4530   32.8650   33.6270 N.pl3  50  ARG50       0.1354
    181  NH2       64.9950   34.2710   35.3970 N.pl3  50  ARG50       0.1354
@<TRIPOS>BOND
     1   174   173    2
     2   173   172    1
     3   147   144    1
     4   147   148    1
     5   171   172    1
     6   172   175    1
     7   144   145    1
     8   144   143    1
     9   146   145    2
    10   166   167    1
    11   169   168    2
    12   145   149   am
    13   168   167    1
    14   175   176    1
    15   167   170    1
    16   161   160    2
    17   160   159    1
    18   149   150    1
    19    71    70    1
    20    66    67    1
    21    70    67    1
    22    70    72    1
    23   152   151    2
    24    92    91   ar
    25    92    90   ar
    26   176   177    1
    27   164   163    1
    28   150   151    1
    29   150   153    1
    30   177   178    1
    31   151   158   am
    32    91    89   ar
    33   157   156    1
    34   140   141    1
    35   140   137    1
    36   159   158    1
    37   159   162    1
    38    67    68    1
    39   163   162    1
    40   163   165    1
    41    90    88   ar
    42   156   155    1
    43   141   142    1
    44    69    68    2
    45   138   139    2
    46   138   137    1
    47   178   179    2
    48    68    73   am
    49   180   179    1
    50   137   136    1
    51    89    87   ar
    52   153   154    1
    53   155   154    1
    54   179   181    1
    55    88    87   ar
    56   142   136    1
    57    87    86    1
    58   136   131   am
    59    73    74    1
    60    74    75    1
    61    74    77    1
    62    86    83    1
    63   131   132    2
    64   131   130    1
    65    76    75    2
    66    75    82   am
    67   109   107    1
    68   135   133    1
    69    82    83    1
    70    77    78    1
    71    83    84    1
    72   122   121    2
    73   130   133    1
    74   130   129    1
    75   133   134    1
    76   107   106    1
    77    78    79    1
    78   121   129   am
    79   121   120    1
    80    84    85    2
    81    84    93   am
    82   108   106    1
    83   106   103    1
    84    79    80    2
    85    79    81   am
    86    93    94    1
    87   120   123    1
    88   120   119    1
    89   126   128   ar
    90   126   124   ar
    91   113   112    2
    92   103   102    1
    93   103   104    1
    94   123   124    1
    95    96    95    2
    96    95    94    1
    97    95   102   am
    98   128   127   ar
    99    94    97    1
   100   124   125   ar
   101   110   104   am
   102   110   111    1
   103   112   111    1
   104   104   105    2
   105    13    10    1
   106   111   114    1
   107   127   125   ar
   108    97    98    1
   109   118   117    1
   110    10    11    1
   111    10     9    1
   112    12    11    2
   113    29    28   ar
   114     4     3    2
   115   116   117    1
   116   116   115    1
   117   114   115    1
   118    11    14   am
   119     9     3   am
   120     3     2    1
   121    98    99    1
   122    28    30   ar
   123    28    27    1
   124     2     5    1
   125     2     1    1
   126    14    15    1
   127    17    16    2
   128    99   100    1
   129     7     6    1
   130     7     8    1
   131     5     6    1
   132   100   101    1
   133    27    26    1
   134    16    15    1
   135    16    22   am
   136    26    23    1
   137    15    18    1
   138    22    23    1
   139    23    24    1
   140    58    57    1
   141    58    59    2
   142    57    60    1
   143    57    56    1
   144    62    61   ar
   145    62    64   ar
   146    60    61    1
   147    61    63   ar
   148    64    65   ar
   149    65    63   ar
   150    20    19   ar
   151    18    19    1
   152    24    31   am
   153    24    25    2
   154    31    32    1
   155    51    50    2
   156    19    21   ar
   157    55    53   am
   158    34    33    2
   159    35    32    1
   160    35    36    1
   161    50    49    1
   162    32    33    1
   163    53    52    1
   164    53    54    2
   165    37    36    1
   166    37    38    1
   167    52    49    1
   168    43    42    2
   169    49    48    1
   170    47    45   am
   171    42    48   am
   172    42    41    1
   173    39    38    1
   174    40    41    1
   175    45    46    2
   176    45    44    1
   177    41    44    1
