@<TRIPOS>MOLECULE
tmp/2rqfA00.pdb
 197 186 0 0 0
SMALL
GASTEIGER

@<TRIPOS>ATOM
      1  N         -8.0640   18.4270    0.9350 N.3     8  LEU8       -0.1245
      2  CA        -6.9920   18.6840    1.8890 C.3     8  LEU8        0.1561
      3  C         -7.2150   20.0070    2.6150 C.2     8  LEU8        0.2260
      4  O         -7.6650   20.9860    2.0200 O.2     8  LEU8       -0.2867
      5  CB        -5.6400   18.7040    1.1740 C.3     8  LEU8        0.0270
      6  CG        -4.4040   18.6810    2.0750 C.3     8  LEU8        0.0019
      7  CD1       -4.5110   17.5610    3.0990 C.3     8  LEU8        0.0001
      8  CD2       -3.1400   18.5250    1.2420 C.3     8  LEU8        0.0001
      9  N         -4.8090   15.3890   11.4760 N.3    19  LEU19      -0.1245
     10  CA        -3.8670   14.8120   10.5240 C.3    19  LEU19       0.1561
     11  C         -4.4380   13.5470    9.8910 C.2    19  LEU19       0.2260
     12  O         -4.5120   13.4320    8.6680 O.2    19  LEU19      -0.2867
     13  CB        -2.5400   14.4950   11.2160 C.3    19  LEU19       0.0270
     14  CG        -1.6490   13.4650   10.5210 C.3    19  LEU19       0.0019
     15  CD1       -0.2090   13.9520   10.4710 C.3    19  LEU19       0.0001
     16  CD2       -1.7350   12.1210   11.2290 C.3    19  LEU19       0.0001
     17  N         -7.2270   14.0190    7.5840 N.3    22  ALA22      -0.1231
     18  CA        -6.7600   14.5830    6.3230 C.3    22  ALA22       0.1694
     19  C         -6.2980   13.4870    5.3690 C.2    22  ALA22       0.2592
     20  O         -6.6690   13.4740    4.1950 O.2    22  ALA22      -0.2718
     21  CB        -5.6350   15.5760    6.5740 C.3    22  ALA22       0.0304
     22  N         -5.4860   12.5670    5.8810 N.am   23  THR23      -0.1953
     23  CA        -4.9720   11.4670    5.0740 C.3    23  THR23       0.1897
     24  C         -6.1050   10.5850    4.5610 C.2    23  THR23       0.2313
     25  O         -6.0530   10.0840    3.4390 O.2    23  THR23      -0.2863
     26  CB        -3.9820   10.5990    5.8720 C.3    23  THR23       0.1794
     27  OG1       -2.8780   10.2230    5.0410 O.3    23  THR23      -0.2208
     28  CG2       -4.6660    9.3520    6.4100 C.3    23  THR23       0.0378
     29  N         -8.2530   12.9870    1.9210 N.3    26  PHE26      -0.1227
     30  CA        -7.4420   13.1800    0.7240 C.3    26  PHE26       0.1736
     31  C         -7.3230   11.8810   -0.0670 C.2    26  PHE26       0.2595
     32  O         -7.4770   11.8690   -1.2890 O.2    26  PHE26      -0.2718
     33  CB        -6.0490   13.6890    1.1040 C.3    26  PHE26       0.0547
     34  CG        -5.2070   14.0690   -0.0810 C.ar   26  PHE26      -0.0202
     35  CD1       -5.4220   15.2670   -0.7440 C.ar   26  PHE26      -0.0042
     36  CD2       -4.2020   13.2290   -0.5310 C.ar   26  PHE26      -0.0042
     37  CE1       -4.6480   15.6200   -1.8330 C.ar   26  PHE26      -0.0003
     38  CE2       -3.4250   13.5780   -1.6200 C.ar   26  PHE26      -0.0003
     39  CZ        -3.6490   14.7740   -2.2730 C.ar   26  PHE26      -0.0000
     40  N         -7.0470   10.7890    0.6380 N.am   27  LEU27      -0.1980
     41  CA        -6.9070    9.4830    0.0020 C.3    27  LEU27       0.1596
     42  C         -8.2290    9.0290   -0.6070 C.2    27  LEU27       0.2287
     43  O         -8.2500    8.3610   -1.6400 O.2    27  LEU27      -0.2864
     44  CB        -6.4190    8.4500    1.0190 C.3    27  LEU27       0.0297
     45  CG        -4.9260    8.4830    1.3460 C.3    27  LEU27       0.0022
     46  CD1       -4.6290    7.6330    2.5720 C.3    27  LEU27       0.0001
     47  CD2       -4.1070    8.0080    0.1550 C.3    27  LEU27       0.0001
     48  N         -5.4000    5.5600   10.3470 N.3    77  ILE77      -0.1245
     49  CA        -4.0450    5.7030   10.8650 C.3    77  ILE77       0.1561
     50  C         -3.9360    5.1490   12.2810 C.2    77  ILE77       0.2260
     51  O         -4.6320    5.6010   13.1900 O.2    77  ILE77      -0.2867
     52  CB        -3.5950    7.1760   10.8660 C.3    77  ILE77       0.0252
     53  CG1       -2.8480    7.5050    9.5710 C.3    77  ILE77       0.0019
     54  CG2       -2.7180    7.4610   12.0760 C.3    77  ILE77       0.0019
     55  CD1       -2.4900    8.9680    9.4350 C.3    77  ILE77       0.0001
     56  N          5.7980   12.7110   14.2070 N.3    82  MET82      -0.1245
     57  CA         6.3360   13.8370   13.4530 C.3    82  MET82       0.1570
     58  C          7.4670   14.5150   14.2200 C.2    82  MET82       0.2261
     59  O          7.2610   15.0350   15.3170 O.2    82  MET82      -0.2867
     60  CB         5.2310   14.8500   13.1490 C.3    82  MET82       0.0387
     61  CG         5.1590   15.2510   11.6850 C.3    82  MET82       0.0595
     62  SD         3.9220   16.5250   11.3730 S.3    82  MET82      -0.1393
     63  CE         4.8560   17.6630   10.3530 C.3    82  MET82       0.0692
     64  N          8.8130   11.7550    9.3420 N.3    89  VAL89      -0.1245
     65  CA         7.4110   11.4670    9.6190 C.3    89  VAL89       0.1561
     66  C          7.1090    9.9840    9.4350 C.2    89  VAL89       0.2260
     67  O          7.0000    9.4960    8.3100 O.2    89  VAL89      -0.2867
     68  CB         6.4790   12.2860    8.7070 C.3    89  VAL89       0.0252
     69  CG1        5.0280   11.8850    8.9270 C.3    89  VAL89       0.0019
     70  CG2        6.6710   13.7760    8.9500 C.3    89  VAL89       0.0019
     71  N          4.4130    7.1230   10.0460 N.3    91  LEU91      -0.1245
     72  CA         3.0210    6.8180   10.3580 C.3    91  LEU91       0.1561
     73  C          2.6000    5.4930    9.7300 C.2    91  LEU91       0.2260
     74  O          2.9320    5.2050    8.5800 O.2    91  LEU91      -0.2867
     75  CB         2.1090    7.9420    9.8650 C.3    91  LEU91       0.0270
     76  CG         1.9290    8.0450    8.3500 C.3    91  LEU91       0.0019
     77  CD1        0.4990    7.7080    7.9580 C.3    91  LEU91       0.0001
     78  CD2        2.3040    9.4360    7.8610 C.3    91  LEU91       0.0001
     79  N         -0.5680    2.7430    8.7420 N.3    93  THR93      -0.1218
     80  CA        -1.9890    2.6800    8.4260 C.3    93  THR93       0.1862
     81  C         -2.5160    1.2540    8.5420 C.2    93  THR93       0.2287
     82  O         -1.7900    0.2910    8.2940 O.2    93  THR93      -0.2866
     83  CB        -2.2740    3.2070    7.0070 C.3    93  THR93       0.1770
     84  OG1       -1.2760    2.7290    6.0980 O.3    93  THR93      -0.2211
     85  CG2       -2.2980    4.7280    6.9890 C.3    93  THR93       0.0375
     86  N          5.0650    3.4440    7.5070 N.3   128  VAL128     -0.1245
     87  CA         5.8020    4.1570    6.4710 C.3   128  VAL128      0.1561
     88  C          6.5900    5.3220    7.0590 C.2   128  VAL128      0.2260
     89  O          6.0450    6.1450    7.7950 O.2   128  VAL128     -0.2867
     90  CB         4.8570    4.6920    5.3770 C.3   128  VAL128      0.0252
     91  CG1        5.5180    4.6020    4.0100 C.3   128  VAL128      0.0019
     92  CG2        3.5400    3.9300    5.3930 C.3   128  VAL128      0.0019
     93  N          8.9300    8.6210    6.1650 N.3   130  TYR130     -0.1241
     94  CA         9.3370    9.5680    5.1350 C.3   130  TYR130      0.1605
     95  C          9.6740   10.9250    5.7460 C.2   130  TYR130      0.2264
     96  O          9.0440   11.3590    6.7090 O.2   130  TYR130     -0.2867
     97  CB         8.2300    9.7270    4.0910 C.3   130  TYR130      0.0534
     98  CG         6.9720   10.3660    4.6350 C.ar  130  TYR130     -0.0201
     99  CD1        6.8820   11.7430    4.7950 C.ar  130  TYR130     -0.0009
    100  CD2        5.8740    9.5920    4.9890 C.ar  130  TYR130     -0.0009
    101  CE1        5.7350   12.3310    5.2920 C.ar  130  TYR130      0.0417
    102  CE2        4.7220   10.1710    5.4850 C.ar  130  TYR130      0.0417
    103  CZ         4.6580   11.5410    5.6360 C.ar  130  TYR130      0.1957
    104  OH         3.5130   12.1230    6.1300 O.3   130  TYR130     -0.2866
    105  N         10.2670   15.1710    5.7400 N.3   132  TYR132     -0.1241
    106  CA         9.5230   16.3320    5.2650 C.3   132  TYR132      0.1605
    107  C         10.3120   17.6170    5.4980 C.2   132  TYR132      0.2264
    108  O         10.7620   17.8880    6.6100 O.2   132  TYR132     -0.2867
    109  CB         8.1670   16.4170    5.9670 C.3   132  TYR132      0.0534
    110  CG         8.2660   16.7770    7.4320 C.ar  132  TYR132     -0.0201
    111  CD1        8.9080   15.9370    8.3330 C.ar  132  TYR132     -0.0009
    112  CD2        7.7160   17.9590    7.9160 C.ar  132  TYR132     -0.0009
    113  CE1        9.0000   16.2620    9.6720 C.ar  132  TYR132      0.0417
    114  CE2        7.8040   18.2920    9.2540 C.ar  132  TYR132      0.0417
    115  CZ         8.4470   17.4400   10.1280 C.ar  132  TYR132      0.1957
    116  OH         8.5370   17.7680   11.4610 O.3   132  TYR132     -0.2866
    117  N          6.4460   21.9040   -0.1350 N.3   144  PHE144     -0.1227
    118  CA         6.6640   20.8140    0.8090 C.3   144  PHE144      0.1736
    119  C          7.5500   19.7330    0.1970 C.2   144  PHE144      0.2595
    120  O          7.1730   19.0870   -0.7790 O.2   144  PHE144     -0.2718
    121  CB         5.3260   20.2090    1.2400 C.3   144  PHE144      0.0547
    122  CG         5.2530   19.9000    2.7080 C.ar  144  PHE144     -0.0202
    123  CD1        6.4010   19.6050    3.4250 C.ar  144  PHE144     -0.0042
    124  CD2        4.0360   19.9040    3.3700 C.ar  144  PHE144     -0.0042
    125  CE1        6.3370   19.3200    4.7760 C.ar  144  PHE144     -0.0003
    126  CE2        3.9660   19.6200    4.7210 C.ar  144  PHE144     -0.0003
    127  CZ         5.1180   19.3270    5.4250 C.ar  144  PHE144     -0.0000
    128  N          8.7300   19.5440    0.7790 N.am  145  GLU145     -0.1965
    129  CA         9.6700   18.5430    0.2910 C.3   145  GLU145      0.1733
    130  C          9.3190   17.1580    0.8280 C.2   145  GLU145      0.2616
    131  O          9.5210   16.8680    2.0070 O.2   145  GLU145     -0.2715
    132  CB        11.0990   18.9120    0.6960 C.3   145  GLU145      0.0429
    133  CG        12.1450   18.5160   -0.3330 C.3   145  GLU145      0.1163
    134  CD        12.3730   19.5910   -1.3770 C.2   145  GLU145      0.3649
    135  OE1       11.6480   19.5950   -2.3940 O.co2 145  GLU145     -0.2457
    136  OE2       13.2760   20.4300   -1.1760 O.co2 145  GLU145     -0.2457
    137  N          8.7910   16.3070   -0.0460 N.am  146  VAL146     -0.1977
    138  CA         8.4120   14.9530    0.3380 C.3   146  VAL146      0.1596
    139  C          9.5450   13.9680    0.0720 C.2   146  VAL146      0.2287
    140  O          9.7650   13.5540   -1.0650 O.2   146  VAL146     -0.2864
    141  CB         7.1530   14.4870   -0.4170 C.3   146  VAL146      0.0276
    142  CG1        7.2440   14.8610   -1.8880 C.3   146  VAL146      0.0022
    143  CG2        6.9570   12.9870   -0.2500 C.3   146  VAL146      0.0022
    144  N          1.1600    1.8510   -1.7550 N.3   203  TYR203     -0.1241
    145  CA         1.8610    2.9160   -1.0480 C.3   203  TYR203      0.1605
    146  C          2.5690    3.8460   -2.0280 C.2   203  TYR203      0.2264
    147  O          2.6340    5.0580   -1.8150 O.2   203  TYR203     -0.2867
    148  CB         2.8730    2.3250   -0.0660 C.3   203  TYR203      0.0534
    149  CG         2.2980    2.0520    1.3060 C.ar  203  TYR203     -0.0201
    150  CD1        1.6280    3.0450    2.0090 C.ar  203  TYR203     -0.0009
    151  CD2        2.4270    0.8020    1.8990 C.ar  203  TYR203     -0.0009
    152  CE1        1.1020    2.8010    3.2630 C.ar  203  TYR203      0.0417
    153  CE2        1.9020    0.5490    3.1510 C.ar  203  TYR203      0.0417
    154  CZ         1.2410    1.5510    3.8300 C.ar  203  TYR203      0.1957
    155  OH         0.7180    1.3030    5.0780 O.3   203  TYR203     -0.2866
    156  N         -0.2090    6.2540   -3.6260 N.3   206  VAL206     -0.1245
    157  CA        -0.6330    7.2810   -2.6820 C.3   206  VAL206      0.1561
    158  C          0.4650    8.3150   -2.4640 C.2   206  VAL206      0.2260
    159  O          0.2120    9.5200   -2.4870 O.2   206  VAL206     -0.2867
    160  CB        -1.0230    6.6680   -1.3240 C.3   206  VAL206      0.0252
    161  CG1       -2.3370    5.9100   -1.4360 C.3   206  VAL206      0.0019
    162  CG2        0.0840    5.7580   -0.8130 C.3   206  VAL206      0.0019
    163  N          0.5410   12.5690   -3.3120 N.3   210  ILE210     -0.1245
    164  CA         0.8490   13.6510   -2.3860 C.3   210  ILE210      0.1561
    165  C          2.0350   14.4740   -2.8760 C.2   210  ILE210      0.2260
    166  O          2.0720   15.6930   -2.7050 O.2   210  ILE210     -0.2867
    167  CB         1.1580   13.1150   -0.9760 C.3   210  ILE210      0.0252
    168  CG1        0.0360   12.1900   -0.5000 C.3   210  ILE210      0.0019
    169  CG2        1.3510   14.2670   -0.0010 C.3   210  ILE210      0.0019
    170  CD1        0.2990   11.5660    0.8520 C.3   210  ILE210      0.0001
    171  N          1.8750   18.4370   -3.5840 N.3   214  ALA214     -0.1245
    172  CA         2.7130   19.3790   -2.8530 C.3   214  ALA214      0.1562
    173  C          3.3280   20.4100   -3.7930 C.2   214  ALA214      0.2260
    174  O          3.7820   21.4690   -3.3590 O.2   214  ALA214     -0.2867
    175  CB         3.8040   18.6360   -2.0950 C.3   214  ALA214      0.0290
    176  N         -1.2260   21.6330    4.2440 N.3   222  PHE222     -0.1227
    177  CA        -1.3380   20.4130    5.0360 C.3   222  PHE222      0.1736
    178  C         -1.4580   20.7390    6.5220 C.2   222  PHE222      0.2595
    179  O         -2.3460   20.2360    7.2100 O.2   222  PHE222     -0.2718
    180  CB        -0.1260   19.5110    4.7960 C.3   222  PHE222      0.0547
    181  CG         0.0540   19.1190    3.3570 C.ar  222  PHE222     -0.0202
    182  CD1        0.5940   20.0110    2.4450 C.ar  222  PHE222     -0.0042
    183  CD2       -0.3170   17.8590    2.9170 C.ar  222  PHE222     -0.0042
    184  CE1        0.7620   19.6540    1.1200 C.ar  222  PHE222     -0.0003
    185  CE2       -0.1510   17.4960    1.5940 C.ar  222  PHE222     -0.0003
    186  CZ         0.3880   18.3950    0.6940 C.ar  222  PHE222     -0.0000
    187  N         -0.5560   21.5840    7.0110 N.am  223  PHE223     -0.1976
    188  CA        -0.5580   21.9760    8.4150 C.3   223  PHE223      0.1639
    189  C         -0.7570   23.4820    8.5590 C.2   223  PHE223      0.2290
    190  O         -0.1970   24.2680    7.7950 O.2   223  PHE223     -0.2864
    191  CB         0.7520   21.5570    9.0860 C.3   223  PHE223      0.0560
    192  CG         0.8820   20.0720    9.2720 C.ar  223  PHE223     -0.0200
    193  CD1        1.3200   19.2660    8.2340 C.ar  223  PHE223     -0.0042
    194  CD2        0.5650   19.4830   10.4850 C.ar  223  PHE223     -0.0042
    195  CE1        1.4410   17.9000    8.4020 C.ar  223  PHE223     -0.0003
    196  CE2        0.6850   18.1170   10.6590 C.ar  223  PHE223     -0.0003
    197  CZ         1.1220   17.3240    9.6160 C.ar  223  PHE223     -0.0000
@<TRIPOS>BOND
     1   173   174    2
     2   173   172    1
     3   156   157    1
     4   171   172    1
     5   163   164    1
     6   165   166    2
     7   165   164    1
     8   172   175    1
     9   157   158    1
    10   157   160    1
    11   159   158    2
    12   135   134   ar
    13   164   167    1
    14    39    37   ar
    15    39    38   ar
    16   146   147    2
    17   146   145    1
    18   142   141    1
    19    37    35   ar
    20   144   145    1
    21    43    42    2
    22    38    36   ar
    23   161   160    1
    24   134   136   ar
    25   134   133    1
    26   160   162    1
    27    32    31    2
    28   140   139    2
    29   145   148    1
    30   167   168    1
    31   167   169    1
    32   120   119    2
    33    35    34   ar
    34    42    41    1
    35    36    34   ar
    36   168   170    1
    37   141   143    1
    38   141   138    1
    39   133   132    1
    40   117   118    1
    41    34    33    1
    42    31    40   am
    43    31    30    1
    44   148   149    1
    45   137   138    1
    46   137   130   am
    47    41    40    1
    48    41    44    1
    49   139   138    1
    50    47    45    1
    51   119   128   am
    52   119   118    1
    53   129   132    1
    54   129   128    1
    55   129   130    1
    56   186   184   ar
    57   186   185   ar
    58    30    33    1
    59    30    29    1
    60   118   121    1
    61   130   131    2
    62     1     2    1
    63    44    45    1
    64   184   182   ar
    65     5     2    1
    66     5     6    1
    67   121   122    1
    68     8     6    1
    69   149   151   ar
    70   149   150   ar
    71    45    46    1
    72   185   183   ar
    73     2     3    1
    74   151   153   ar
    75   150   152   ar
    76     4     3    2
    77     6     7    1
    78   182   181   ar
    79   122   124   ar
    80   122   123   ar
    81   183   181   ar
    82   153   154   ar
    83   152   154   ar
    84   181   180    1
    85   124   126   ar
    86   123   125   ar
    87    25    24    2
    88   154   155    1
    89    91    90    1
    90    97    98    1
    91    97    94    1
    92    20    19    2
    93   176   177    1
    94    24    23    1
    95    98    99   ar
    96    98   100   ar
    97   126   127   ar
    98   125   127   ar
    99    99   101   ar
   100   180   177    1
   101   100   102   ar
   102   177   178    1
   103    27    26    1
   104    23    26    1
   105    23    22    1
   106    94    95    1
   107    94    93    1
   108   106   107    1
   109   106   105    1
   110   106   109    1
   111   101   103   ar
   112    19    22   am
   113    19    18    1
   114    90    92    1
   115    90    87    1
   116   102   103   ar
   117   107   108    2
   118   103   104    1
   119    95    96    2
   120    26    28    1
   121   109   110    1
   122    84    83    1
   123    18    21    1
   124    18    17    1
   125    87    88    1
   126    87    86    1
   127   178   187   am
   128   178   179    2
   129    85    83    1
   130    83    80    1
   131   187   188    1
   132    88    89    2
   133   110   112   ar
   134   110   111   ar
   135   190   189    2
   136    78    76    1
   137   112   114   ar
   138    77    76    1
   139   193   195   ar
   140   193   192   ar
   141    82    81    2
   142    67    66    2
   143   111   113   ar
   144    76    75    1
   145   195   197   ar
   146   188   189    1
   147   188   191    1
   148    80    81    1
   149    80    79    1
   150    74    73    2
   151    12    11    2
   152    68    69    1
   153    68    70    1
   154    68    65    1
   155   191   192    1
   156   114   115   ar
   157   192   194   ar
   158    64    65    1
   159    66    65    1
   160    55    53    1
   161    53    52    1
   162   197   196   ar
   163   113   115   ar
   164    73    72    1
   165    75    72    1
   166    11    10    1
   167    71    72    1
   168   115   116    1
   169    48    49    1
   170    63    62    1
   171    15    14    1
   172   194   196   ar
   173    14    13    1
   174    14    16    1
   175    10    13    1
   176    10     9    1
   177    49    52    1
   178    49    50    1
   179    52    54    1
   180    62    61    1
   181    61    60    1
   182    50    51    2
   183    60    57    1
   184    57    56    1
   185    57    58    1
   186    58    59    2
