@<TRIPOS>MOLECULE
tmp/2rr4A00.pdb
 202 205 0 0 0
SMALL
GASTEIGER

@<TRIPOS>ATOM
      1  N         14.1710   -1.4330  -13.4620 N.3    12  PHE12      -0.1241
      2  CA        14.3970   -1.0470  -12.0540 C.3    12  PHE12       0.1605
      3  C         13.4320    0.0460  -11.5320 C.2    12  PHE12       0.2264
      4  O         13.2900    0.2170  -10.3190 O.2    12  PHE12      -0.2867
      5  CB        15.8800   -0.6930  -11.8220 C.3    12  PHE12       0.0534
      6  CG        16.3050   -0.6530  -10.3650 C.ar   12  PHE12      -0.0203
      7  CD1       16.4970   -1.8550   -9.6570 C.ar   12  PHE12      -0.0042
      8  CD2       16.5220    0.5800   -9.7180 C.ar   12  PHE12      -0.0042
      9  CE1       16.9020   -1.8250   -8.3100 C.ar   12  PHE12      -0.0003
     10  CE2       16.9250    0.6090   -8.3700 C.ar   12  PHE12      -0.0003
     11  CZ        17.1160   -0.5930   -7.6660 C.ar   12  PHE12      -0.0000
     12  N         10.2830    0.4430  -10.7090 N.3    14  GLN14      -0.1231
     13  CA         9.0400   -0.1900  -10.2630 C.3    14  GLN14       0.1698
     14  C          8.2020    0.7570   -9.3890 C.2    14  GLN14       0.2592
     15  O          8.7070    1.3680   -8.4410 O.2    14  GLN14      -0.2718
     16  CB         9.3410   -1.4780   -9.4810 C.3    14  GLN14       0.0381
     17  CG         9.9380   -2.5990  -10.3480 C.3    14  GLN14       0.0905
     18  CD        10.0580   -3.9270   -9.5920 C.2    14  GLN14       0.2608
     19  OE1        9.9100   -4.0120   -8.3780 O.2    14  GLN14      -0.2717
     20  NE2       10.3170   -5.0230  -10.2770 N.am   14  GLN14      -0.0878
     21  N          6.9000    0.8220   -9.6800 N.am   15  CYS15      -0.1956
     22  CA         5.8930    1.4940   -8.8540 C.3    15  CYS15       0.1843
     23  C          5.3870    0.5810   -7.7160 C.2    15  CYS15       0.2625
     24  O          5.6510   -0.6260   -7.6870 O.2    15  CYS15      -0.2714
     25  CB         4.7390    1.9530   -9.7680 C.3    15  CYS15       0.0997
     26  SG         5.3440    3.0970  -11.0470 S.3    15  CYS15      -0.0797
     27  N          4.6000    1.1600   -6.8060 N.am   16  LEU16      -0.1963
     28  CA         3.9530    0.4890   -5.6730 C.3    16  LEU16       0.1728
     29  C          2.5620    1.1060   -5.4470 C.2    16  LEU16       0.2616
     30  O          2.3350    2.2550   -5.8240 O.2    16  LEU16      -0.2715
     31  CB         4.9030    0.6220   -4.4600 C.3    16  LEU16       0.0311
     32  CG         4.4700   -0.0570   -3.1470 C.3    16  LEU16       0.0022
     33  CD1        4.2210   -1.5600   -3.3140 C.3    16  LEU16       0.0001
     34  CD2        5.5680    0.1420   -2.0920 C.3    16  LEU16       0.0001
     35  N          1.6290    0.3530   -4.8600 N.am   17  VAL17      -0.1963
     36  CA         0.2610    0.7990   -4.5310 C.3    17  VAL17       0.1727
     37  C          0.0140    0.5790   -3.0400 C.2    17  VAL17       0.2616
     38  O          0.3850   -0.4600   -2.4890 O.2    17  VAL17      -0.2715
     39  CB        -0.8210    0.0580   -5.3590 C.3    17  VAL17       0.0290
     40  CG1       -2.2470    0.5500   -5.0350 C.3    17  VAL17       0.0023
     41  CG2       -0.6070    0.2320   -6.8700 C.3    17  VAL17       0.0023
     42  N         -0.6350    1.5600   -2.4100 N.am   18  TRP18      -0.1960
     43  CA        -1.0110    1.5490   -1.0000 C.3    18  TRP18       0.1771
     44  C         -2.4940    1.9060   -0.8200 C.2    18  TRP18       0.2620
     45  O         -3.0410    2.7340   -1.5530 O.2    18  TRP18      -0.2715
     46  CB        -0.1530    2.5560   -0.2290 C.3    18  TRP18       0.0590
     47  CG         1.3210    2.3310   -0.1890 C.ar   18  TRP18       0.0006
     48  CD1        2.1930    2.6710   -1.1610 C.ar   18  TRP18       0.0946
     49  CD2        2.1220    1.7570    0.8870 C.ar   18  TRP18       0.0152
     50  NE1        3.4760    2.3960   -0.7450 N.ar   18  TRP18      -0.2442
     51  CE2        3.4950    1.8060    0.5000 C.ar   18  TRP18       0.0810
     52  CE3        1.8260    1.1920    2.1470 C.ar   18  TRP18       0.0012
     53  CZ2        4.5230    1.3100    1.3160 C.ar   18  TRP18       0.0191
     54  CZ3        2.8470    0.6720    2.9620 C.ar   18  TRP18       0.0001
     55  CH2        4.1900    0.7310    2.5520 C.ar   18  TRP18       0.0015
     56  N         -3.1120    1.3170    0.2040 N.am   19  VAL19      -0.1963
     57  CA        -4.5380    1.4780    0.5530 C.3    19  VAL19       0.1727
     58  C         -4.6910    1.8150    2.0300 C.2    19  VAL19       0.2616
     59  O         -4.1110    1.1340    2.8730 O.2    19  VAL19      -0.2715
     60  CB        -5.3580    0.1990    0.2600 C.3    19  VAL19       0.0290
     61  CG1       -5.8680    0.1940   -1.1770 C.3    19  VAL19       0.0023
     62  CG2       -4.5800   -1.1000    0.5250 C.3    19  VAL19       0.0023
     63  N         -5.4700    2.8570    2.3340 N.am   20  GLN20      -0.1963
     64  CA        -5.7600    3.2650    3.7070 C.3    20  GLN20       0.1733
     65  C         -7.0230    2.5710    4.2320 C.2    20  GLN20       0.2616
     66  O         -8.0670    2.5830    3.5740 O.2    20  GLN20      -0.2715
     67  CB        -5.8900    4.7920    3.8090 C.3    20  GLN20       0.0408
     68  CG        -5.9190    5.2450    5.2810 C.3    20  GLN20       0.0908
     69  CD        -5.8550    6.7610    5.4610 C.2    20  GLN20       0.2608
     70  OE1       -6.5350    7.5290    4.7940 O.2    20  GLN20      -0.2717
     71  NE2       -5.0550    7.2550    6.3840 N.am   20  GLN20      -0.0878
     72  N         -6.9210    2.0150    5.4420 N.am   21  CYS21      -0.1954
     73  CA        -8.0160    1.4060    6.1880 C.3    21  CYS21       0.1843
     74  C         -9.2220    2.3560    6.3600 C.2    21  CYS21       0.2626
     75  O         -9.0710    3.5400    6.6820 O.2    21  CYS21      -0.2714
     76  CB        -7.4500    0.9720    7.5440 C.3    21  CYS21       0.0997
     77  SG        -8.6080   -0.1660    8.3520 S.3    21  CYS21      -0.0797
     78  N        -10.4300    1.8360    6.1520 N.am   22  SER22      -0.1950
     79  CA       -11.6910    2.5880    6.2490 C.3    22  SER22       0.1924
     80  C        -12.0290    3.0700    7.6710 C.2    22  SER22       0.2314
     81  O        -12.7670    4.0500    7.8210 O.2    22  SER22      -0.2863
     82  CB       -12.8670    1.7650    5.6980 C.3    22  SER22       0.2116
     83  OG       -13.0040    0.5160    6.3640 O.3    22  SER22      -0.2180
     84  N         -1.9110    2.3190    6.3500 N.3    29  TRP29      -0.1241
     85  CA        -1.6560    2.1070    4.9260 C.3    29  TRP29       0.1605
     86  C         -0.9820    0.7480    4.7190 C.2    29  TRP29       0.2264
     87  O          0.1370    0.5440    5.1800 O.2    29  TRP29      -0.2867
     88  CB        -0.7920    3.2560    4.3890 C.3    29  TRP29       0.0550
     89  CG        -1.4510    4.6010    4.3520 C.ar   29  TRP29       0.0003
     90  CD1       -1.4850    5.4920    5.3680 C.ar   29  TRP29       0.0946
     91  CD2       -2.1530    5.2400    3.2420 C.ar   29  TRP29       0.0152
     92  NE1       -2.1310    6.6420    4.9570 N.ar   29  TRP29      -0.2442
     93  CE2       -2.5560    6.5480    3.6490 C.ar   29  TRP29       0.0810
     94  CE3       -2.4870    4.8460    1.9300 C.ar   29  TRP29       0.0012
     95  CZ2       -3.2290    7.4290    2.7870 C.ar   29  TRP29       0.0191
     96  CZ3       -3.1690    5.7160    1.0620 C.ar   29  TRP29       0.0001
     97  CH2       -3.5210    7.0120    1.4780 C.ar   29  TRP29       0.0015
     98  N          0.4710   -2.1840    1.9000 N.3    31  ARG31      -0.1245
     99  CA         0.9640   -2.4310    0.5340 C.3    31  ARG31       0.1563
    100  C          0.0690   -3.4280   -0.2120 C.2    31  ARG31       0.2260
    101  O         -0.5620   -4.2830    0.4090 O.2    31  ARG31      -0.2867
    102  CB         2.3920   -3.0050    0.5520 C.3    31  ARG31       0.0307
    103  CG         3.4590   -2.0260    1.0200 C.3    31  ARG31       0.0489
    104  CD         4.8550   -2.6460    0.8660 C.3    31  ARG31       0.2205
    105  NE         5.9220   -1.6780    1.1550 N.pl3  31  ARG31      -0.0865
    106  CZ         7.2220   -1.8560    0.9490 C.cat  31  ARG31       0.5346
    107  NH1        7.7040   -2.9790    0.4560 N.pl3  31  ARG31       0.1354
    108  NH2        8.0670   -0.8900    1.2340 N.pl3  31  ARG31       0.1354
    109  N         -5.6710    0.9040   -7.9820 N.3    38  PRO38      -0.2116
    110  CA        -6.5580    1.5740   -7.0380 C.3    38  PRO38       0.1372
    111  C         -7.9080    2.0050   -7.6350 C.2    38  PRO38       0.2244
    112  O         -8.8480    2.2320   -6.8770 O.2    38  PRO38      -0.2868
    113  CB        -5.7520    2.7410   -6.4660 C.3    38  PRO38       0.0268
    114  CG        -4.7130    3.0330   -7.5420 C.3    38  PRO38       0.0207
    115  CD        -4.4400    1.6620   -8.1490 C.3    38  PRO38       0.0892
    116  N        -10.6000   -0.9730   -6.6380 N.3    41  LEU41      -0.1231
    117  CA       -10.7040   -1.2750   -5.2000 C.3    41  LEU41       0.1678
    118  C        -11.9260   -0.6020   -4.5350 C.2    41  LEU41       0.2434
    119  O        -12.3870    0.4410   -5.0160 O.2    41  LEU41      -0.2733
    120  CB        -9.3830   -0.8930   -4.5020 C.3    41  LEU41       0.0284
    121  CG        -8.1990   -1.7940   -4.9030 C.3    41  LEU41       0.0019
    122  CD1       -6.9080   -1.2420   -4.2980 C.3    41  LEU41       0.0001
    123  CD2       -8.3950   -3.2340   -4.3960 C.3    41  LEU41       0.0001
    124  N        -12.4640   -1.2030   -3.4510 N.am   42  PRO42      -0.2718
    125  CA       -13.7140   -0.7940   -2.8150 C.3    42  PRO42       0.1535
    126  C        -13.5560    0.4850   -1.9860 C.2    42  PRO42       0.2599
    127  O        -12.5070    0.7370   -1.3970 O.2    42  PRO42      -0.2715
    128  CB       -14.1310   -1.9800   -1.9370 C.3    42  PRO42       0.0310
    129  CG       -12.8140   -2.6720   -1.5960 C.3    42  PRO42       0.0237
    130  CD       -11.9580   -2.4190   -2.8250 C.3    42  PRO42       0.0939
    131  N        -14.6350    1.2700   -1.8950 N.am   43  ASP43      -0.1958
    132  CA       -14.7000    2.5060   -1.0950 C.3    43  ASP43       0.1840
    133  C        -14.6860    2.2530    0.4280 C.2    43  ASP43       0.2622
    134  O        -14.4650    3.1780    1.2090 O.2    43  ASP43      -0.2715
    135  CB       -15.9550    3.3040   -1.4880 C.3    43  ASP43       0.1450
    136  CG       -15.9010    3.8060   -2.9390 C.2    43  ASP43       0.3671
    137  OD1      -15.1980    4.8140   -3.1960 O.co2  43  ASP43      -0.2456
    138  OD2      -16.5750    3.2050   -3.8090 O.co2  43  ASP43      -0.2456
    139  N        -14.8690    0.9970    0.8440 N.am   44  ASN44      -0.1958
    140  CA       -14.8870    0.5340    2.2370 C.3    44  ASN44       0.1819
    141  C        -13.7470   -0.4690    2.5250 C.2    44  ASN44       0.2621
    142  O        -13.8660   -1.3160    3.4140 O.2    44  ASN44      -0.2715
    143  CB       -16.2800   -0.0440    2.5460 C.3    44  ASN44       0.1195
    144  CG       -17.3920    0.9950    2.4120 C.2    44  ASN44       0.2630
    145  OD1      -17.4030    2.0180    3.0880 O.2    44  ASN44      -0.2716
    146  ND2      -18.3670    0.7610    1.5480 N.am   44  ASN44      -0.0877
    147  N        -12.6450   -0.3950    1.7650 N.am   45  TRP45      -0.1974
    148  CA       -11.4320   -1.1880    1.9900 C.3    45  TRP45       0.1640
    149  C        -10.8980   -1.0380    3.4290 C.2    45  TRP45       0.2290
    150  O        -10.8190    0.0680    3.9560 O.2    45  TRP45      -0.2864
    151  CB       -10.3580   -0.7920    0.9680 C.3    45  TRP45       0.0576
    152  CG        -9.2060   -1.7400    0.9520 C.ar   45  TRP45       0.0006
    153  CD1       -9.0580   -2.7880    0.1120 C.ar   45  TRP45       0.0946
    154  CD2       -8.0860   -1.8020    1.8860 C.ar   45  TRP45       0.0152
    155  NE1       -7.9460   -3.5200    0.4850 N.ar   45  TRP45      -0.2442
    156  CE2       -7.3310   -2.9740    1.5940 C.ar   45  TRP45       0.0810
    157  CE3       -7.6610   -1.0110    2.9780 C.ar   45  TRP45       0.0012
    158  CZ2       -6.2230   -3.3480    2.3620 C.ar   45  TRP45       0.0191
    159  CZ3       -6.5570   -1.3840    3.7610 C.ar   45  TRP45       0.0001
    160  CH2       -5.8470   -2.5550    3.4550 C.ar   45  TRP45       0.0015
    161  N          1.2390   -0.7920   11.8760 N.3    62  GLU62      -0.1245
    162  CA         1.7370   -0.3710   10.5670 C.3    62  GLU62       0.1567
    163  C          3.2380   -0.7220   10.4040 C.2    62  GLU62       0.2260
    164  O          4.0060   -0.7320   11.3720 O.2    62  GLU62      -0.2867
    165  CB         1.4180    1.1280   10.4020 C.3    62  GLU62       0.0388
    166  CG         0.8450    1.4960    9.0320 C.3    62  GLU62       0.1160
    167  CD         1.9010    1.4870    7.9230 C.2    62  GLU62       0.3649
    168  OE1        2.1710    0.3910    7.3840 O.co2  62  GLU62      -0.2457
    169  OE2        2.4420    2.5720    7.6050 O.co2  62  GLU62      -0.2457
    170  N          8.4350    1.2470    6.7790 N.3    65  TRP65      -0.1227
    171  CA         8.6990    1.4220    5.3390 C.3    65  TRP65       0.1737
    172  C          9.7350    2.5260    5.0380 C.2    65  TRP65       0.2596
    173  O          9.9250    2.9220    3.8850 O.2    65  TRP65      -0.2718
    174  CB         7.3630    1.6550    4.6090 C.3    65  TRP65       0.0564
    175  CG         6.7000    2.9820    4.8480 C.ar   65  TRP65       0.0003
    176  CD1        5.9590    3.3050    5.9310 C.ar   65  TRP65       0.0946
    177  CD2        6.6920    4.1770    3.9980 C.ar   65  TRP65       0.0152
    178  NE1        5.5220    4.6100    5.8330 N.ar   65  TRP65      -0.2442
    179  CE2        5.9510    5.2010    4.6640 C.ar   65  TRP65       0.0810
    180  CE3        7.2340    4.5050    2.7340 C.ar   65  TRP65       0.0012
    181  CZ2        5.7760    6.4830    4.1190 C.ar   65  TRP65       0.0191
    182  CZ3        7.0540    5.7840    2.1710 C.ar   65  TRP65       0.0001
    183  CH2        6.3320    6.7740    2.8620 C.ar   65  TRP65       0.0015
    184  N         10.3980    3.0220    6.0890 N.am   66  THR66      -0.1939
    185  CA        11.2740    4.2080    6.1220 C.3    66  THR66       0.2028
    186  C         12.5710    4.0400    5.3210 C.2    66  THR66       0.2643
    187  O         13.1950    5.0370    4.9610 O.2    66  THR66      -0.2714
    188  CB        11.5940    4.5740    7.5860 C.3    66  THR66       0.1808
    189  OG1       10.4870    4.2650    8.4150 O.3    66  THR66      -0.2208
    190  CG2       11.8820    6.0690    7.7630 C.3    66  THR66       0.0379
    191  N         12.9670    2.8040    5.0030 N.am   67  GLY67      -0.1939
    192  CA        14.1820    2.4730    4.2560 C.3    67  GLY67       0.2014
    193  C         14.4700    0.9720    4.2700 C.2    67  GLY67       0.2638
    194  O         13.6860    0.1870    3.7290 O.2    67  GLY67      -0.2714
    195  N         15.5840    0.5820    4.8970 N.am   68  LEU68      -0.1977
    196  CA        15.9820   -0.8080    5.1350 C.3    68  LEU68       0.1596
    197  C         16.5730   -0.9350    6.5490 C.2    68  LEU68       0.2287
    198  O         17.5310   -0.2410    6.8980 O.2    68  LEU68      -0.2864
    199  CB        16.9690   -1.2480    4.0330 C.3    68  LEU68       0.0297
    200  CG        17.4720   -2.7020    4.1630 C.3    68  LEU68       0.0022
    201  CD1       16.3320   -3.7270    4.0650 C.3    68  LEU68       0.0001
    202  CD2       18.5060   -2.9820    3.0620 C.3    68  LEU68       0.0001
@<TRIPOS>BOND
     1     1     2    1
     2     2     5    1
     3     2     3    1
     4     5     6    1
     5     3     4    2
     6    26    25    1
     7    12    13    1
     8     6     8   ar
     9     6     7   ar
    10    17    18    1
    11    17    16    1
    12    20    18   am
    13    13    16    1
    14    13    14    1
    15    25    22    1
    16     8    10   ar
    17    21    14   am
    18    21    22    1
    19     7     9   ar
    20    18    19    2
    21    14    15    2
    22    22    23    1
    23    10    11   ar
    24     9    11   ar
    25   115   109    1
    26   115   114    1
    27   109   110    1
    28    23    24    2
    29    23    27   am
    30   111   110    1
    31   111   112    2
    32   114   113    1
    33   110   113    1
    34    41    39    1
    35    27    28    1
    36   116   117    1
    37    30    29    2
    38    28    29    1
    39    28    31    1
    40    29    35   am
    41    39    40    1
    42    39    36    1
    43   117   118    1
    44   117   120    1
    45   119   118    2
    46   121   120    1
    47   121   123    1
    48   121   122    1
    49    35    36    1
    50   118   124   am
    51    36    37    1
    52    31    32    1
    53   138   136   ar
    54   124   130    1
    55   124   125    1
    56    33    32    1
    57   137   136   ar
    58    32    34    1
    59    37    38    2
    60    37    42   am
    61   136   135    1
    62   130   129    1
    63   125   126    1
    64   125   128    1
    65    42    43    1
    66   126   131   am
    67   126   127    2
    68   128   129    1
    69   131   132    1
    70    45    44    2
    71   135   132    1
    72    61    60    1
    73    48    50   ar
    74    48    47   ar
    75   132   133    1
    76    43    44    1
    77    43    46    1
    78    44    56   am
    79    50    51   ar
    80    46    47    1
    81   100   101    2
    82   100    99    1
    83    47    49   ar
    84   153   155   ar
    85   153   152   ar
    86    56    57    1
    87    60    62    1
    88    60    57    1
    89   133   139   am
    90   133   134    2
    91   107   106    1
    92   155   156   ar
    93    51    49   ar
    94    51    53   ar
    95    99   102    1
    96    99    98    1
    97   102   103    1
    98    57    58    1
    99   139   140    1
   100   104   103    1
   101   104   105    1
   102    49    52   ar
   103   106   105    2
   104   106   108    1
   105   152   151    1
   106   152   154   ar
   107   151   148    1
   108    96    97   ar
   109    96    94   ar
   110    53    55   ar
   111    97    95   ar
   112   146   144   am
   113   156   154   ar
   114   156   158   ar
   115   147   148    1
   116   147   141   am
   117   154   157   ar
   118    94    91   ar
   119   148   149    1
   120    58    63   am
   121    58    59    2
   122    52    54   ar
   123   182   180   ar
   124   182   183   ar
   125   140   141    1
   126   140   143    1
   127    63    64    1
   128   158   160   ar
   129   144   143    1
   130   144   145    2
   131   141   142    2
   132    55    54   ar
   133   180   177   ar
   134    95    93   ar
   135   183   181   ar
   136   157   159   ar
   137   202   200    1
   138    91    93   ar
   139    91    89   ar
   140   149   150    2
   141   160   159   ar
   142    66    65    2
   143    93    92   ar
   144    64    67    1
   145    64    65    1
   146   194   193    2
   147    67    68    1
   148   173   172    2
   149   177   179   ar
   150   177   175   ar
   151   199   200    1
   152   199   196    1
   153   201   200    1
   154   181   179   ar
   155    65    72   am
   156   192   193    1
   157   192   191    1
   158   193   195   am
   159    89    88    1
   160    89    90   ar
   161    88    85    1
   162   174   175    1
   163   174   171    1
   164   179   178   ar
   165    86    85    1
   166    86    87    2
   167    70    69    2
   168   175   176   ar
   169   195   196    1
   170    85    84    1
   171    92    90   ar
   172   187   186    2
   173   191   186   am
   174   172   171    1
   175   172   184   am
   176   196   197    1
   177    68    69    1
   178   186   185    1
   179   171   170    1
   180    72    73    1
   181    69    71   am
   182    82    79    1
   183    82    83    1
   184   178   176   ar
   185   184   185    1
   186   185   188    1
   187    78    79    1
   188    78    74   am
   189    73    74    1
   190    73    76    1
   191    79    80    1
   192    74    75    2
   193   197   198    2
   194   168   167   ar
   195    76    77    1
   196   188   190    1
   197   188   189    1
   198   169   167   ar
   199    80    81    2
   200   167   166    1
   201   166   165    1
   202   165   162    1
   203   163   162    1
   204   163   164    2
   205   162   161    1
