@<TRIPOS>MOLECULE
tmp/2rs5A00.pdb
 221 211 0 0 0
SMALL
GASTEIGER

@<TRIPOS>ATOM
      1  N         42.9700    0.2560  131.4430 N.3    88  ILE88      -0.1231
      2  CA        42.8760    1.1960  130.2680 C.3    88  ILE88       0.1692
      3  C         41.7270    2.1630  130.2990 C.2    88  ILE88       0.2592
      4  O         40.6300    1.8410  130.7490 O.2    88  ILE88      -0.2718
      5  CB        42.7010    0.4450  128.9560 C.3    88  ILE88       0.0266
      6  CG1       43.9480   -0.3060  128.5440 C.3    88  ILE88       0.0019
      7  CG2       42.3800    1.3530  127.7580 C.3    88  ILE88       0.0020
      8  CD1       43.8020   -0.9440  127.1620 C.3    88  ILE88       0.0001
      9  N         42.0060    3.3190  129.7440 N.am   89  ASN89      -0.1960
     10  CA        41.0770    4.4340  129.8410 C.3    89  ASN89       0.1819
     11  C         41.7360    5.6580  129.1990 C.2    89  ASN89       0.2621
     12  O         42.9510    5.7250  129.0680 O.2    89  ASN89      -0.2715
     13  CB        40.8970    4.6350  131.3380 C.3    89  ASN89       0.1195
     14  CG        41.6210    5.8680  131.8480 C.2    89  ASN89       0.2630
     15  OD1       41.1160    6.9600  131.6570 O.2    89  ASN89      -0.2716
     16  ND2       42.7750    5.7660  132.4880 N.am   89  ASN89      -0.0877
     17  N         40.9730    6.6690  128.8110 N.am   90  LEU90      -0.1977
     18  CA        41.5850    7.8110  128.0640 C.3    90  LEU90       0.1596
     19  C         41.4590    9.1460  128.8000 C.2    90  LEU90       0.2287
     20  O         42.2230   10.0970  128.5550 O.2    90  LEU90      -0.2864
     21  CB        40.8820    7.9640  126.7190 C.3    90  LEU90       0.0297
     22  CG        41.8080    7.7740  125.5180 C.3    90  LEU90       0.0022
     23  CD1       42.4270    6.3760  125.4460 C.3    90  LEU90       0.0001
     24  CD2       41.0870    7.9770  124.1850 C.3    90  LEU90       0.0001
     25  N         38.3410   15.6890  123.9180 N.3   100  LEU100     -0.1245
     26  CA        37.3070   14.7330  123.6070 C.3   100  LEU100      0.1561
     27  C         35.9580   15.1450  124.1930 C.2   100  LEU100      0.2260
     28  O         34.9140   14.7910  123.6260 O.2   100  LEU100     -0.2867
     29  CB        37.6430   13.3460  124.1010 C.3   100  LEU100      0.0270
     30  CG        38.6870   12.5790  123.4710 C.3   100  LEU100      0.0019
     31  CD1       39.2910   11.5300  124.4120 C.3   100  LEU100      0.0001
     32  CD2       38.1090   11.8030  122.2800 C.3   100  LEU100      0.0001
     33  N         31.6350    9.5830  120.6320 N.3   106  VAL106     -0.1301
     34  CA        32.8590    9.7740  119.7030 C.3   106  VAL106      0.1246
     35  C         33.1220    8.4180  119.1970 C.3   106  VAL106      0.2009
     36  O         32.8230    7.4330  119.9740 O.3   106  VAL106     -0.2188
     37  CB        33.7880   10.4560  120.7150 C.3   106  VAL106      0.0202
     38  CG1       34.8210    9.5990  121.3160 C.3   106  VAL106      0.0016
     39  CG2       34.2390   11.7430  120.1250 C.3   106  VAL106      0.0016
     40  N         36.1240    6.1390  116.8490 N.3   108  PHE108     -0.1241
     41  CA        37.3910    6.2440  116.1280 C.3   108  PHE108      0.1605
     42  C         38.2100    4.9920  116.2830 C.2   108  PHE108      0.2264
     43  O         37.8890    4.1870  117.1770 O.2   108  PHE108     -0.2867
     44  CB        38.0990    7.5230  116.5820 C.3   108  PHE108      0.0534
     45  CG        38.2570    7.6780  118.0530 C.ar  108  PHE108     -0.0203
     46  CD1       39.0890    6.8470  118.7820 C.ar  108  PHE108     -0.0042
     47  CD2       37.6180    8.7020  118.7370 C.ar  108  PHE108     -0.0042
     48  CE1       39.2630    6.9760  120.1450 C.ar  108  PHE108     -0.0003
     49  CE2       37.7600    8.8340  120.1150 C.ar  108  PHE108     -0.0003
     50  CZ        38.5770    7.9530  120.8090 C.ar  108  PHE108     -0.0000
     51  N         42.1130    3.5610  117.1060 N.3   110  SER110     -0.1217
     52  CA        43.1960    4.1390  117.8910 C.3   110  SER110      0.1889
     53  C         44.5000    3.7140  117.3240 C.2   110  SER110      0.2288
     54  O         44.5920    2.5360  116.9230 O.2   110  SER110     -0.2866
     55  CB        43.1210    3.6710  119.3290 C.3   110  SER110      0.2089
     56  OG        41.8070    4.1000  119.7750 O.3   110  SER110     -0.2183
     57  N         48.1980    3.3840  118.8680 N.3   112  TYR112     -0.1298
     58  CA        49.0150    3.5720  120.0780 C.3   112  TYR112      0.1290
     59  C         50.4800    3.6860  119.7780 C.3   112  TYR112      0.2013
     60  O         50.9370    2.8910  118.8750 O.3   112  TYR112     -0.2188
     61  CB        48.8150    2.3890  121.0120 C.3   112  TYR112      0.0480
     62  CG        47.4940    2.4920  121.7510 C.ar  112  TYR112     -0.0204
     63  CD1       46.3730    1.8150  121.2680 C.ar  112  TYR112     -0.0009
     64  CD2       47.4080    3.2780  122.9010 C.ar  112  TYR112     -0.0009
     65  CE1       45.1540    1.9260  121.9390 C.ar  112  TYR112      0.0417
     66  CE2       46.1890    3.3910  123.5720 C.ar  112  TYR112      0.0417
     67  CZ        45.0610    2.7150  123.0900 C.ar  112  TYR112      0.1957
     68  OH        43.8740    2.8250  123.7410 O.3   112  TYR112     -0.2866
     69  N         54.1110    3.4560  121.9580 N.3   114  ILE114     -0.1245
     70  CA        54.5620    3.2370  123.3620 C.3   114  ILE114      0.1561
     71  C         56.0390    3.5370  123.4280 C.2   114  ILE114      0.2260
     72  O         56.8050    2.8120  122.7470 O.2   114  ILE114     -0.2867
     73  CB        54.2090    1.7670  123.7910 C.3   114  ILE114      0.0252
     74  CG1       52.7340    1.5180  123.5800 C.3   114  ILE114      0.0019
     75  CG2       54.6450    1.5390  125.2700 C.3   114  ILE114      0.0019
     76  CD1       52.1760    0.2210  124.2160 C.3   114  ILE114      0.0001
     77  N         54.4590   -5.7160  126.1830 N.3   134  ALA134     -0.1231
     78  CA        53.1810   -5.1170  126.5910 C.3   134  ALA134      0.1694
     79  C         52.1050   -6.0440  126.0740 C.2   134  ALA134      0.2592
     80  O         52.0970   -6.3990  124.9050 O.2   134  ALA134     -0.2718
     81  CB        53.0470   -3.7440  125.9310 C.3   134  ALA134      0.0304
     82  N         51.1870   -6.4650  126.9000 N.am  135  MET135     -0.1965
     83  CA        50.1760   -7.4310  126.4290 C.3   135  MET135      0.1736
     84  C         48.7720   -6.9390  126.7740 C.2   135  MET135      0.2616
     85  O         48.5520   -6.3360  127.8170 O.2   135  MET135     -0.2715
     86  CB        50.4580   -8.7620  127.1210 C.3   135  MET135      0.0427
     87  CG        49.2150   -9.6180  127.3160 C.3   135  MET135      0.0599
     88  SD        49.5980  -11.2570  127.9150 S.3   135  MET135     -0.1393
     89  CE        49.4160  -11.3280  129.6860 C.3   135  MET135      0.0692
     90  N         47.8120   -7.1950  125.8980 N.am  136  TYR136     -0.1974
     91  CA        46.4160   -6.7400  126.1380 C.3   136  TYR136      0.1639
     92  C         45.6790   -7.8290  126.8890 C.2   136  TYR136      0.2290
     93  O         45.6720   -8.9880  126.4800 O.2   136  TYR136     -0.2864
     94  CB        45.6940   -6.4780  124.7970 C.3   136  TYR136      0.0560
     95  CG        44.2570   -5.9150  124.9340 C.ar  136  TYR136     -0.0198
     96  CD1       43.2350   -6.3670  124.0770 C.ar  136  TYR136     -0.0009
     97  CD2       43.9520   -4.9440  125.9010 C.ar  136  TYR136     -0.0009
     98  CE1       41.9320   -5.8490  124.1870 C.ar  136  TYR136      0.0417
     99  CE2       42.6520   -4.4260  126.0080 C.ar  136  TYR136      0.0417
    100  CZ        41.6430   -4.8770  125.1510 C.ar  136  TYR136      0.1957
    101  OH        40.3830   -4.3690  125.2520 O.3   136  TYR136     -0.2866
    102  N         46.7020  -10.4100  121.8330 N.3   158  PRO158     -0.2102
    103  CA        47.7650   -9.7370  121.0380 C.3   158  PRO158      0.1504
    104  C         48.8380   -9.2250  121.9280 C.2   158  PRO158      0.2576
    105  O         48.4600   -8.5380  122.8690 O.2   158  PRO158     -0.2718
    106  CB        47.0230   -8.6550  120.2710 C.3   158  PRO158      0.0282
    107  CG        45.7960   -8.4440  120.9110 C.3   158  PRO158      0.0208
    108  CD        45.5270   -9.5670  121.9180 C.3   158  PRO158      0.0893
    109  N         50.0930   -9.5510  121.6460 N.am  159  SER159     -0.1938
    110  CA        51.1630   -8.8180  122.5210 C.3   159  SER159      0.2055
    111  C         52.2700   -8.3530  121.6210 C.2   159  SER159      0.2639
    112  O         52.3990   -8.8860  120.4700 O.2   159  SER159     -0.2714
    113  CB        51.3170   -9.5980  123.7220 C.3   159  SER159      0.2130
    114  OG        52.2660  -10.4730  123.8720 O.3   159  SER159     -0.2179
    115  N         52.9840   -7.2590  121.9000 N.am  160  VAL160     -0.2030
    116  CA        54.0540   -6.7140  121.1470 C.3   160  VAL160      0.1282
    117  C         55.3740   -6.7860  122.0220 C.3   160  VAL160      0.2035
    118  O         55.1800   -6.3170  123.2030 O.3   160  VAL160     -0.2185
    119  CB        54.0020   -5.1740  120.9030 C.3   160  VAL160      0.0226
    120  CG1       54.5140   -4.8330  119.5510 C.3   160  VAL160      0.0018
    121  CG2       52.8120   -4.5020  121.3520 C.3   160  VAL160      0.0018
    122  N         51.1550    0.1780  116.9780 N.3   170  PHE170     -0.1298
    123  CA        50.2500   -0.8030  116.3970 C.3   170  PHE170      0.1290
    124  C         48.8930   -0.0400  116.4060 C.3   170  PHE170      0.2013
    125  O         48.9750    1.0480  117.0000 O.3   170  PHE170     -0.2188
    126  CB        50.4190   -2.0390  117.3180 C.3   170  PHE170      0.0480
    127  CG        49.9600   -1.6790  118.7030 C.ar  170  PHE170     -0.0206
    128  CD1       50.8760   -1.3980  119.7330 C.ar  170  PHE170     -0.0042
    129  CD2       48.6020   -1.6060  118.9110 C.ar  170  PHE170     -0.0042
    130  CE1       50.3900   -1.0170  120.9910 C.ar  170  PHE170     -0.0003
    131  CE2       48.1150   -1.2210  120.1590 C.ar  170  PHE170     -0.0003
    132  CZ        49.0070   -0.9230  121.2000 C.ar  170  PHE170     -0.0000
    133  N         44.4780   -0.2450  116.9220 N.3   172  VAL172     -0.1231
    134  CA        43.3850   -1.1940  117.3520 C.3   172  VAL172      0.1677
    135  C         42.1060   -0.6460  116.7670 C.2   172  VAL172      0.2431
    136  O         41.9720    0.6020  116.7530 O.2   172  VAL172     -0.2733
    137  CB        43.2490   -0.9430  118.8470 C.3   172  VAL172      0.0265
    138  CG1       42.0880   -1.6650  119.4930 C.3   172  VAL172      0.0020
    139  CG2       44.5230   -1.2380  119.6160 C.3   172  VAL172      0.0020
    140  N         41.2250   -1.4190  116.1780 N.am  173  PRO173     -0.2774
    141  CA        39.9700   -0.9680  115.6310 C.3   173  PRO173      0.1083
    142  C         39.0990   -0.3940  116.7330 C.3   173  PRO173      0.2017
    143  O         39.4800   -0.6720  117.9360 O.3   173  PRO173     -0.2186
    144  CB        39.2530   -2.2870  115.2480 C.3   173  PRO173      0.0243
    145  CG        40.0020   -3.3680  115.8760 C.3   173  PRO173      0.0233
    146  CD        41.4420   -2.8740  115.9490 C.3   173  PRO173      0.0935
    147  N         36.9040   -0.7160  119.4600 N.3   175  VAL175     -0.1301
    148  CA        36.4200   -1.7850  120.2390 C.3   175  VAL175      0.1246
    149  C         35.2070   -1.5200  121.1110 C.3   175  VAL175      0.2009
    150  O         34.9170   -2.4360  121.9740 O.3   175  VAL175     -0.2188
    151  CB        37.5500   -2.4830  120.9580 C.3   175  VAL175      0.0202
    152  CG1       38.5250   -2.9700  119.9940 C.3   175  VAL175      0.0016
    153  CG2       37.9260   -1.5350  122.0290 C.3   175  VAL175      0.0016
    154  N         31.5170    5.5730  121.5400 N.3   181  TYR181     -0.1227
    155  CA        31.9540    5.5170  122.9640 C.3   181  TYR181      0.1736
    156  C         31.1770    6.6020  123.6840 C.2   181  TYR181      0.2595
    157  O         31.0750    7.6850  122.9810 O.2   181  TYR181     -0.2718
    158  CB        33.3820    5.7280  122.4480 C.3   181  TYR181      0.0548
    159  CG        34.4370    4.7580  122.0250 C.ar  181  TYR181     -0.0200
    160  CD1       34.4750    3.4390  122.4470 C.ar  181  TYR181     -0.0009
    161  CD2       35.4780    5.1980  121.2330 C.ar  181  TYR181     -0.0009
    162  CE1       35.4790    2.5620  122.1030 C.ar  181  TYR181      0.0417
    163  CE2       36.5140    4.3330  120.8550 C.ar  181  TYR181      0.0417
    164  CZ        36.4720    3.0360  121.2940 C.ar  181  TYR181      0.1957
    165  OH        37.4650    2.2340  120.8490 O.3   181  TYR181     -0.2866
    166  N         30.6630    6.4300  124.8720 N.am  182  ASN182     -0.1960
    167  CA        29.8310    8.0960  125.1530 C.3   182  ASN182      0.1819
    168  C         30.9950    8.8020  125.7980 C.2   182  ASN182      0.2621
    169  O         31.8390    8.1570  126.4470 O.2   182  ASN182     -0.2715
    170  CB        28.9940    7.1400  126.5390 C.3   182  ASN182      0.1195
    171  CG        27.6620    6.5240  126.1090 C.2   182  ASN182      0.2630
    172  OD1       26.6090    6.9470  126.5810 O.2   182  ASN182     -0.2716
    173  ND2       27.6460    5.5390  125.2300 N.am  182  ASN182     -0.0877
    174  N         31.1380   10.0560  125.6750 N.am  183  CYS183     -0.1968
    175  CA        32.2090   10.6690  126.4320 C.3   183  CYS183      0.1712
    176  C         31.6530   10.8500  127.8030 C.2   183  CYS183      0.2296
    177  O         32.3910   11.0940  128.7780 O.2   183  CYS183     -0.2864
    178  CB        32.5970   11.9960  125.8190 C.3   183  CYS183      0.0983
    179  SG        34.1290   11.8580  124.7880 S.3   183  CYS183     -0.0798
    180  N         30.1610    6.9260  133.4420 N.3   199  ILE199     -0.1245
    181  CA        30.6920    6.2220  132.2790 C.3   199  ILE199      0.1561
    182  C         31.6320    5.0850  132.7440 C.2   199  ILE199      0.2260
    183  O         31.7820    4.0420  132.1000 O.2   199  ILE199     -0.2867
    184  CB        31.3540    7.3030  131.4310 C.3   199  ILE199      0.0252
    185  CG1       32.6160    7.8890  132.0040 C.3   199  ILE199      0.0019
    186  CG2       30.4710    8.5260  131.2560 C.3   199  ILE199      0.0019
    187  CD1       33.6480    8.1810  130.8760 C.3   199  ILE199      0.0001
    188  N         32.4930    2.2400  130.0850 N.3   203  ASN203     -0.1240
    189  CA        33.8560    2.2970  129.5330 C.3   203  ASN203      0.1653
    190  C         34.7880    1.2930  130.1650 C.2   203  ASN203      0.2266
    191  O         35.8440    1.6630  130.6850 O.2   203  ASN203     -0.2867
    192  CB        34.4150    3.6270  129.8960 C.3   203  ASN203      0.1155
    193  CG        34.4030    4.5550  128.7310 C.2   203  ASN203      0.2627
    194  OD1       33.3940    4.6310  128.0340 O.2   203  ASN203     -0.2716
    195  ND2       35.4800    5.2530  128.4810 N.am  203  ASN203     -0.0877
    196  N         36.9650   -1.9500  129.4090 N.3   205  MET205     -0.1245
    197  CA        37.6350   -2.4730  128.1770 C.3   205  MET205      0.1570
    198  C         38.9180   -3.2110  128.4000 C.2   205  MET205      0.2261
    199  O         39.7050   -3.4260  127.4660 O.2   205  MET205     -0.2867
    200  CB        38.1130   -1.3360  127.2950 C.3   205  MET205      0.0387
    201  CG        37.5080   -0.0210  127.7020 C.3   205  MET205      0.0595
    202  SD        36.7180    0.7530  126.3170 S.3   205  MET205     -0.1393
    203  CE        36.1680   -0.5170  125.1950 C.3   205  MET205      0.0692
    204  N         45.9790   -3.0710  130.1480 N.3   208  MET208     -0.1245
    205  CA        47.1580   -3.4650  129.3690 C.3   208  MET208      0.1570
    206  C         48.3080   -3.7110  130.3400 C.2   208  MET208      0.2261
    207  O         48.5290   -2.9920  131.3140 O.2   208  MET208     -0.2867
    208  CB        47.3380   -2.5030  128.1620 C.3   208  MET208      0.0387
    209  CG        48.1230   -1.2300  128.4060 C.3   208  MET208      0.0595
    210  SD        48.9470   -0.7070  126.9120 S.3   208  MET208     -0.1393
    211  CE        47.7520    0.0220  125.8180 C.3   208  MET208      0.0692
    212  N         48.2600    8.1240  122.3560 N.3   229  HIS229     -0.1241
    213  CA        47.0770    7.6560  121.6110 C.3   229  HIS229      0.1621
    214  C         46.6920    8.6650  120.5550 C.2   229  HIS229      0.2264
    215  O         46.6170    9.8440  120.8590 O.2   229  HIS229     -0.2867
    216  CB        45.9110    7.4160  122.5330 C.3   229  HIS229      0.0745
    217  CG        44.6170    7.2040  121.8230 C.ar  229  HIS229      0.0817
    218  ND1       43.8670    8.2480  121.3150 N.ar  229  HIS229     -0.2268
    219  CD2       43.9330    6.0440  121.5580 C.ar  229  HIS229      0.1154
    220  CE1       42.7490    7.6990  120.7690 C.ar  229  HIS229      0.1986
    221  NE2       42.7730    6.4030  120.9040 N.ar  229  HIS229     -0.2212
@<TRIPOS>BOND
     1   144   141    1
     2   144   145    1
     3   141   140    1
     4   141   142    1
     5   145   146    1
     6   146   140    1
     7    41    42    1
     8    41    44    1
     9    41    40    1
    10   140   135   am
    11    42    43    2
    12   123   124    1
    13   123   122    1
    14   123   126    1
    15   124   125    1
    16    44    45    1
    17   142   143    1
    18   136   135    2
    19   135   134    1
    20   133   134    1
    21    54    53    2
    22    51    52    1
    23   126   127    1
    24    53    52    1
    25   134   137    1
    26    52    55    1
    27    45    47   ar
    28    45    46   ar
    29   127   129   ar
    30   127   128   ar
    31    47    49   ar
    32    46    48   ar
    33   137   138    1
    34   137   139    1
    35    57    58    1
    36    60    59    1
    37   129   131   ar
    38    35    34    1
    39    35    36    1
    40    55    56    1
    41   147   148    1
    42   120   119    1
    43    34    33    1
    44    34    37    1
    45   128   130   ar
    46    59    58    1
    47   152   151    1
    48    58    61    1
    49    49    50   ar
    50    39    37    1
    51    48    50   ar
    52   131   132   ar
    53   148   151    1
    54   148   149    1
    55   106   107    1
    56   106   103    1
    57   112   111    2
    58   214   215    2
    59   214   213    1
    60    37    38    1
    61   220   221   ar
    62   220   218   ar
    63   165   164    1
    64   163   161   ar
    65   163   164   ar
    66   119   116    1
    67   119   121    1
    68   221   219   ar
    69   107   108    1
    70   151   153    1
    71   130   132   ar
    72    61    62    1
    73   103   102    1
    74   103   104    1
    75   149   150    1
    76   116   115    1
    77   116   117    1
    78   161   159   ar
    79    63    62   ar
    80    63    65   ar
    81   164   162   ar
    82   218   217   ar
    83   154   155    1
    84   219   217   ar
    85   213   212    1
    86   213   216    1
    87   111   115   am
    88   111   110    1
    89   109   104   am
    90   109   110    1
    91    62    64   ar
    92   217   216    1
    93   102   108    1
    94   104   105    2
    95    65    67   ar
    96    69    70    1
    97   117   118    1
    98   159   160   ar
    99   159   158    1
   100   162   160   ar
   101    32    30    1
   102   158   155    1
   103   110   113    1
   104    72    71    2
   105    64    66   ar
   106   155   156    1
   107   157   156    2
   108    67    66   ar
   109    67    68    1
   110    70    71    1
   111    70    73    1
   112    30    29    1
   113    30    31    1
   114    74    73    1
   115    74    76    1
   116    26    25    1
   117    26    29    1
   118    26    27    1
   119    28    27    2
   120   156   166   am
   121   113   114    1
   122    73    75    1
   123    96    98   ar
   124    96    95   ar
   125    24    22    1
   126    98   100   ar
   127   179   178    1
   128    94    95    1
   129    94    91    1
   130   166   167    1
   131    80    79    2
   132    95    97   ar
   133   100   101    1
   134   100    99   ar
   135   167   168    1
   136   167   170    1
   137   203   202    1
   138   173   171   am
   139    23    22    1
   140    22    21    1
   141   174   168   am
   142   174   175    1
   143   168   169    2
   144   211   210    1
   145   178   175    1
   146    90    91    1
   147    90    84   am
   148    97    99   ar
   149    81    78    1
   150    79    78    1
   151    79    82   am
   152   171   170    1
   153   171   172    2
   154    91    92    1
   155    77    78    1
   156   202   201    1
   157    83    84    1
   158    83    82    1
   159    83    86    1
   160   175   176    1
   161    93    92    2
   162    21    18    1
   163    84    85    2
   164   210   209    1
   165    86    87    1
   166     8     6    1
   167   200   201    1
   168   200   197    1
   169    87    88    1
   170   199   198    2
   171     7     5    1
   172   176   177    2
   173    88    89    1
   174   194   193    2
   175    18    19    1
   176    18    17    1
   177   208   209    1
   178   208   205    1
   179   197   198    1
   180   197   196    1
   181   195   193   am
   182     6     5    1
   183    20    19    2
   184   193   192    1
   185    17    11   am
   186     5     2    1
   187    12    11    2
   188    11    10    1
   189   205   204    1
   190   205   206    1
   191   189   192    1
   192   189   188    1
   193   189   190    1
   194     9    10    1
   195     9     3   am
   196    10    13    1
   197   190   191    2
   198     2     3    1
   199     2     1    1
   200     3     4    2
   201   206   207    2
   202   187   185    1
   203   186   184    1
   204    13    14    1
   205   184   185    1
   206   184   181    1
   207    15    14    2
   208    14    16   am
   209   183   182    2
   210   181   182    1
   211   181   180    1
