@<TRIPOS>MOLECULE
tmp/2rsfA00.pdb
 129 122 0 0 0
SMALL
GASTEIGER

@<TRIPOS>ATOM
      1  N          2.8230   -6.1530   -1.4530 N.3    34  TYR34      -0.1241
      2  CA         4.2830   -6.3020   -1.5060 C.3    34  TYR34       0.1605
      3  C          4.6910   -7.4380   -2.4640 C.2    34  TYR34       0.2264
      4  O          3.9370   -8.4000   -2.6300 O.2    34  TYR34      -0.2867
      5  CB         4.8330   -6.5350   -0.0900 C.3    34  TYR34       0.0534
      6  CG         4.4420   -7.8490    0.5690 C.ar   34  TYR34      -0.0201
      7  CD1        3.2070   -7.9690    1.2370 C.ar   34  TYR34      -0.0009
      8  CD2        5.3240   -8.9470    0.5320 C.ar   34  TYR34      -0.0009
      9  CE1        2.8520   -9.1780    1.8630 C.ar   34  TYR34       0.0417
     10  CE2        4.9800  -10.1590    1.1610 C.ar   34  TYR34       0.0417
     11  CZ         3.7400  -10.2770    1.8310 C.ar   34  TYR34       0.1957
     12  OH         3.3990  -11.4440    2.4460 O.3    34  TYR34      -0.2866
     13  N          7.5500  -14.1410   -3.9590 N.3    37  ARG37      -0.1245
     14  CA         8.1420  -15.0570   -4.9520 C.3    37  ARG37       0.1563
     15  C          7.3610  -15.1010   -6.2800 C.2    37  ARG37       0.2260
     16  O          7.9600  -15.0690   -7.3570 O.2    37  ARG37      -0.2867
     17  CB         8.2190  -16.4630   -4.3280 C.3    37  ARG37       0.0307
     18  CG         9.0140  -17.4600   -5.1890 C.3    37  ARG37       0.0489
     19  CD         8.8610  -18.8880   -4.6500 C.3    37  ARG37       0.2205
     20  NE         9.6050  -19.8620   -5.4700 N.pl3  37  ARG37      -0.0865
     21  CZ         9.2230  -20.3910   -6.6280 C.cat  37  ARG37       0.5346
     22  NH1        8.0950  -20.0560   -7.2230 N.pl3  37  ARG37       0.1354
     23  NH2        9.9900  -21.2830   -7.2180 N.pl3  37  ARG37       0.1354
     24  N         -1.3350   -7.2040    2.1310 N.3    43  TYR43      -0.1227
     25  CA        -1.1860   -7.0990    3.5900 C.3    43  TYR43       0.1736
     26  C         -2.4820   -7.4460    4.3560 C.2    43  TYR43       0.2595
     27  O         -3.5900   -7.3690    3.8170 O.2    43  TYR43      -0.2718
     28  CB        -0.7450   -5.6710    3.9490 C.3    43  TYR43       0.0548
     29  CG         0.7220   -5.3840    3.7200 C.ar   43  TYR43      -0.0200
     30  CD1        1.6620   -5.6960    4.7190 C.ar   43  TYR43      -0.0009
     31  CD2        1.1470   -4.7770    2.5250 C.ar   43  TYR43      -0.0009
     32  CE1        3.0210   -5.3940    4.5250 C.ar   43  TYR43       0.0417
     33  CE2        2.5020   -4.4690    2.3200 C.ar   43  TYR43       0.0417
     34  CZ         3.4430   -4.7820    3.3230 C.ar   43  TYR43       0.1957
     35  OH         4.7590   -4.5170    3.1230 O.3    43  TYR43      -0.2866
     36  N         -2.3480   -7.7760    5.6460 N.am   44  ASP44      -0.1974
     37  CA        -3.4810   -7.9120    6.5700 C.3    44  ASP44       0.1709
     38  C         -4.1610   -6.5540    6.7940 C.2    44  ASP44       0.2293
     39  O         -3.4920   -5.5240    6.8370 O.2    44  ASP44      -0.2864
     40  CB        -3.0040   -8.4300    7.9330 C.3    44  ASP44       0.1436
     41  CG        -2.5390   -9.8920    7.9150 C.2    44  ASP44       0.3671
     42  OD1       -1.3880  -10.1640    7.5020 O.co2  44  ASP44      -0.2456
     43  OD2       -3.3360  -10.7540    8.3560 O.co2  44  ASP44      -0.2456
     44  N          5.8970   -1.6150   11.1510 N.3    64  MET64      -0.1245
     45  CA         4.9090   -2.6980   11.2080 C.3    64  MET64       0.1570
     46  C          5.5300   -4.0210   11.6650 C.2    64  MET64       0.2261
     47  O          6.6830   -4.3290   11.3580 O.2    64  MET64      -0.2867
     48  CB         4.2180   -2.8660    9.8420 C.3    64  MET64       0.0387
     49  CG         5.2190   -2.9850    8.6850 C.3    64  MET64       0.0595
     50  SD         4.5020   -3.4180    7.0870 S.3    64  MET64      -0.1393
     51  CE         6.0410   -3.7970    6.2150 C.3    64  MET64       0.0692
     52  N          5.1430   -8.2970   11.7640 N.3    66  ILE66      -0.1231
     53  CA         4.7100   -9.4410   10.9350 C.3    66  ILE66       0.1692
     54  C          4.7260  -10.7650   11.7290 C.2    66  ILE66       0.2591
     55  O          4.5670  -10.7590   12.9500 O.2    66  ILE66      -0.2718
     56  CB         5.5070   -9.4700    9.6120 C.3    66  ILE66       0.0266
     57  CG1        7.0000   -9.8050    9.8350 C.3    66  ILE66       0.0019
     58  CG2        5.3300   -8.1470    8.8410 C.3    66  ILE66       0.0020
     59  CD1        7.4430  -11.0480    9.0560 C.3    66  ILE66       0.0001
     60  N          4.9310  -11.9050   11.0630 N.am   67  ALA67      -0.1980
     61  CA         5.0110  -13.2380   11.6690 C.3    67  ALA67       0.1597
     62  C          6.1230  -13.4220   12.7310 C.2    67  ALA67       0.2287
     63  O          6.0590  -14.3690   13.5200 O.2    67  ALA67      -0.2864
     64  CB         5.2250  -14.2350   10.5220 C.3    67  ALA67       0.0319
     65  N          9.0000  -10.3810   12.9340 N.3    69  PHE69      -0.1241
     66  CA         9.9670   -9.3330   12.5730 C.3    69  PHE69       0.1605
     67  C          9.3130   -7.9440   12.4910 C.2    69  PHE69       0.2264
     68  O          8.1300   -7.8210   12.1630 O.2    69  PHE69      -0.2867
     69  CB        10.6200   -9.6660   11.2160 C.3    69  PHE69       0.0534
     70  CG        11.4770  -10.9180   11.1800 C.ar   69  PHE69      -0.0203
     71  CD1       12.7940  -10.8740   11.6760 C.ar   69  PHE69      -0.0042
     72  CD2       10.9770  -12.1180   10.6350 C.ar   69  PHE69      -0.0042
     73  CE1       13.6140  -12.0140   11.6070 C.ar   69  PHE69      -0.0003
     74  CE2       11.7980  -13.2580   10.5670 C.ar   69  PHE69      -0.0003
     75  CZ        13.1180  -13.2050   11.0490 C.ar   69  PHE69      -0.0000
     76  N          9.3650   -4.6350   10.2680 N.3    71  TYR71      -0.1241
     77  CA         9.6730   -4.0430    8.9650 C.3    71  TYR71       0.1605
     78  C          9.3380   -2.5450    8.9420 C.2    71  TYR71       0.2264
     79  O          8.2460   -2.1240    9.3260 O.2    71  TYR71      -0.2867
     80  CB         8.9410   -4.8090    7.8530 C.3    71  TYR71       0.0534
     81  CG         9.3690   -6.2510    7.6410 C.ar   71  TYR71      -0.0201
     82  CD1       10.7240   -6.6340    7.7240 C.ar   71  TYR71      -0.0009
     83  CD2        8.3960   -7.2250    7.3440 C.ar   71  TYR71      -0.0009
     84  CE1       11.0880   -7.9850    7.5850 C.ar   71  TYR71       0.0417
     85  CE2        8.7550   -8.5760    7.2120 C.ar   71  TYR71       0.0417
     86  CZ        10.1040   -8.9650    7.3500 C.ar   71  TYR71       0.1957
     87  OH        10.4720  -10.2710    7.2750 O.3    71  TYR71      -0.2866
     88  N          9.9360   -1.8500    1.6290 N.3    80  GLN80      -0.1245
     89  CA        10.0830   -2.3280    3.0050 C.3    80  GLN80       0.1566
     90  C         11.5060   -2.8610    3.2570 C.2    80  GLN80       0.2260
     91  O         12.1660   -3.3470    2.3370 O.2    80  GLN80      -0.2867
     92  CB         9.0180   -3.4010    3.3210 C.3    80  GLN80       0.0367
     93  CG         9.1860   -4.6510    2.4390 C.3    80  GLN80       0.0905
     94  CD         8.3840   -5.8640    2.8830 C.2    80  GLN80       0.2608
     95  OE1        7.4830   -6.3220    2.1990 O.2    80  GLN80      -0.2717
     96  NE2        8.7330   -6.4860    3.9890 N.am   80  GLN80      -0.0878
     97  N         14.1950   -4.3190    7.0620 N.3    82  ARG82      -0.1245
     98  CA        14.4480   -4.4310    8.5140 C.3    82  ARG82       0.1563
     99  C         15.1910   -3.1930    9.0440 C.2    82  ARG82       0.2260
    100  O         16.0300   -2.6350    8.3370 O.2    82  ARG82      -0.2867
    101  CB        15.2540   -5.7090    8.8210 C.3    82  ARG82       0.0307
    102  CG        14.4180   -6.9860    8.6370 C.3    82  ARG82       0.0489
    103  CD        15.1990   -8.2320    9.0780 C.3    82  ARG82       0.2205
    104  NE        14.3640   -9.4480    9.0620 N.pl3  82  ARG82      -0.0865
    105  CZ        14.1490  -10.2700    8.0400 C.cat  82  ARG82       0.5346
    106  NH1       14.6110  -10.0630    6.8290 N.pl3  82  ARG82       0.1354
    107  NH2       13.4460  -11.3630    8.1960 N.pl3  82  ARG82       0.1354
    108  N         19.4680   -3.4260    1.3000 N.3    88  ARG88      -0.1245
    109  CA        18.5550   -4.4690    0.8080 C.3    88  ARG88       0.1563
    110  C         17.1060   -4.1670    1.2130 C.2    88  ARG88       0.2260
    111  O         16.8150   -3.9290    2.3850 O.2    88  ARG88      -0.2867
    112  CB        19.0480   -5.8510    1.2810 C.3    88  ARG88       0.0307
    113  CG        18.3670   -7.0430    0.5820 C.3    88  ARG88       0.0489
    114  CD        17.0810   -7.5320    1.2670 C.3    88  ARG88       0.2205
    115  NE        16.5220   -8.6900    0.5460 N.pl3  88  ARG88      -0.0865
    116  CZ        15.8780   -9.7240    1.0770 C.cat  88  ARG88       0.5346
    117  NH1       15.5700   -9.8130    2.3500 N.pl3  88  ARG88       0.1354
    118  NH2       15.5170  -10.7400    0.3340 N.pl3  88  ARG88       0.1354
    119  N         12.6160   -4.5910   -0.3150 N.3    90  ARG90      -0.1245
    120  CA        11.5790   -5.2840   -1.1010 C.3    90  ARG90       0.1563
    121  C         10.4600   -4.3010   -1.4620 C.2    90  ARG90       0.2260
    122  O         10.0760   -3.4690   -0.6470 O.2    90  ARG90      -0.2867
    123  CB        11.0900   -6.4920   -0.2790 C.3    90  ARG90       0.0307
    124  CG         9.9160   -7.2750   -0.8930 C.3    90  ARG90       0.0489
    125  CD         9.4560   -8.4160    0.0290 C.3    90  ARG90       0.2205
    126  NE        10.4870   -9.4590    0.1800 N.pl3  90  ARG90      -0.0865
    127  CZ        11.1360   -9.7830    1.2920 C.cat  90  ARG90       0.5346
    128  NH1       10.9100   -9.2280    2.4600 N.pl3  90  ARG90       0.1354
    129  NH2       12.0570  -10.7080    1.2840 N.pl3  90  ARG90       0.1354
@<TRIPOS>BOND
     1    16    15    2
     2    22    21    1
     3    23    21    1
     4    21    20    2
     5    15    14    1
     6    20    19    1
     7    18    19    1
     8    18    17    1
     9    14    17    1
    10    14    13    1
    11     4     3    2
    12     3     2    1
    13     2     1    1
    14     2     5    1
    15   121   120    1
    16   121   122    2
    17   120   119    1
    18   120   123    1
    19   124   123    1
    20   124   125    1
    21     5     6    1
    22   125   126    1
    23   126   127    2
    24   118   116    1
    25     8     6   ar
    26     8    10   ar
    27   115   116    2
    28   115   114    1
    29     6     7   ar
    30   113   114    1
    31   113   112    1
    32   109   110    1
    33   109   112    1
    34   109   108    1
    35   116   117    1
    36    10    11   ar
    37   110   111    2
    38     7     9   ar
    39   129   127    1
    40   127   128    1
    41    88    89    1
    42    11     9   ar
    43    11    12    1
    44    24    25    1
    45    95    94    2
    46    33    31   ar
    47    33    34   ar
    48    91    90    2
    49    93    94    1
    50    93    92    1
    51    31    29   ar
    52    94    96   am
    53    89    90    1
    54    89    92    1
    55    35    34    1
    56    34    32   ar
    57    25    28    1
    58    25    26    1
    59    29    28    1
    60    29    30   ar
    61    27    26    2
    62    26    36   am
    63    32    30   ar
    64    36    37    1
    65    51    50    1
    66    37    38    1
    67    37    40    1
    68    38    39    2
    69   106   105    1
    70    97    98    1
    71    50    49    1
    72    85    83   ar
    73    85    86   ar
    74    87    86    1
    75    83    81   ar
    76    86    84   ar
    77    42    41   ar
    78    84    82   ar
    79    81    82   ar
    80    81    80    1
    81    80    77    1
    82    41    40    1
    83    41    43   ar
    84   105   107    1
    85   105   104    2
    86   100    99    2
    87    98   101    1
    88    98    99    1
    89   102   101    1
    90   102   103    1
    91    49    48    1
    92    58    56    1
    93    78    77    1
    94    78    79    2
    95    77    76    1
    96    59    57    1
    97   104   103    1
    98    56    57    1
    99    56    53    1
   100    48    45    1
   101    64    61    1
   102    74    72   ar
   103    74    75   ar
   104    72    70   ar
   105    53    54    1
   106    53    52    1
   107    75    73   ar
   108    60    61    1
   109    60    54   am
   110    44    45    1
   111    70    69    1
   112    70    71   ar
   113    45    46    1
   114    69    66    1
   115    47    46    2
   116    73    71   ar
   117    61    62    1
   118    54    55    2
   119    68    67    2
   120    67    66    1
   121    66    65    1
   122    62    63    2
