@<TRIPOS>MOLECULE
tmp/2rt5A00.pdb
 182 173 0 0 0
SMALL
GASTEIGER

@<TRIPOS>ATOM
      1  N        277.9570   -7.7310   -5.9300 N.3    19  ALA19      -0.1231
      2  CA       278.8780   -8.6450   -6.5950 C.3    19  ALA19       0.1694
      3  C        280.1710   -7.9500   -7.0030 C.2    19  ALA19       0.2592
      4  O        280.1490   -6.9620   -7.7360 O.2    19  ALA19      -0.2718
      5  CB       278.2160   -9.2540   -7.8210 C.3    19  ALA19       0.0304
      6  N        281.2960   -8.4570   -6.5250 N.am   20  LEU20      -0.1966
      7  CA       282.5870   -7.9860   -6.9930 C.3    20  LEU20       0.1728
      8  C        283.4990   -9.1900   -7.1860 C.2    20  LEU20       0.2616
      9  O        283.4020  -10.1640   -6.4360 O.2    20  LEU20      -0.2715
     10  CB       283.1870   -6.9460   -6.0370 C.3    20  LEU20       0.0311
     11  CG       284.0130   -7.4710   -4.8720 C.3    20  LEU20       0.0022
     12  CD1      285.3780   -6.8430   -4.9140 C.3    20  LEU20       0.0001
     13  CD2      283.3670   -7.1150   -3.5630 C.3    20  LEU20       0.0001
     14  N        284.3650   -9.1280   -8.1940 N.am   21  LYS21      -0.1963
     15  CA       285.1210  -10.2960   -8.6490 C.3    21  LYS21       0.1728
     16  C        284.1670  -11.3910   -9.1030 C.2    21  LYS21       0.2616
     17  O        283.6850  -11.3820  -10.2350 O.2    21  LYS21      -0.2715
     18  CB       286.0520  -10.8500   -7.5600 C.3    21  LYS21       0.0311
     19  CG       287.4140  -10.1880   -7.4750 C.3    21  LYS21       0.0038
     20  CD       287.3260   -8.7340   -7.0670 C.3    21  LYS21       0.0206
     21  CE       288.2830   -8.4250   -5.9250 C.3    21  LYS21       0.1093
     22  NZ       289.5760   -9.1550   -6.0570 N.3    21  LYS21      -0.1314
     23  N        283.8910  -12.3180   -8.1990 N.am   22  ASN22      -0.1972
     24  CA       282.9540  -13.4050   -8.4470 C.3    22  ASN22       0.1688
     25  C        282.1970  -13.6950   -7.1640 C.2    22  ASN22       0.2292
     26  O        281.4590  -14.6780   -7.0690 O.2    22  ASN22      -0.2864
     27  CB       283.6760  -14.6860   -8.8930 C.3    22  ASN22       0.1181
     28  CG       284.6020  -14.4800  -10.0750 C.2    22  ASN22       0.2629
     29  OD1      284.1980  -14.6050  -11.2330 O.2    22  ASN22      -0.2716
     30  ND2      285.8570  -14.1800   -9.7880 N.am   22  ASN22      -0.0877
     31  N        279.4740  -12.8670   -4.3640 N.3    24  THR24      -0.1218
     32  CA       278.2170  -12.1690   -4.1730 C.3    24  THR24       0.1862
     33  C        277.8010  -12.1800   -2.7090 C.2    24  THR24       0.2287
     34  O        278.1700  -13.0790   -1.9490 O.2    24  THR24      -0.2866
     35  CB       277.0900  -12.7980   -5.0160 C.3    24  THR24       0.1770
     36  OG1      276.9460  -14.1860   -4.6850 O.3    24  THR24      -0.2211
     37  CG2      277.3740  -12.6540   -6.5040 C.3    24  THR24       0.0375
     38  N        272.4900   -8.2170   -8.9970 N.3    51  PRO51      -0.2116
     39  CA       273.6570   -7.9580   -8.1530 C.3    51  PRO51       0.1372
     40  C        274.4250   -6.7070   -8.5730 C.2    51  PRO51       0.2244
     41  O        274.9050   -6.6050   -9.7050 O.2    51  PRO51      -0.2868
     42  CB       274.5260   -9.2120   -8.3270 C.3    51  PRO51       0.0268
     43  CG       274.0040   -9.8890   -9.5490 C.3    51  PRO51       0.0207
     44  CD       272.5440   -9.5510   -9.6130 C.3    51  PRO51       0.0892
     45  N        277.3640   -4.5770   -9.1040 N.3    53  ARG53      -0.1231
     46  CA       278.7670   -4.9020   -9.3400 C.3    53  ARG53       0.1694
     47  C        279.6800   -3.7350   -8.9630 C.2    53  ARG53       0.2592
     48  O        279.3760   -2.5800   -9.2510 O.2    53  ARG53      -0.2718
     49  CB       278.9750   -5.2540  -10.8090 C.3    53  ARG53       0.0321
     50  CG       278.7290   -4.0770  -11.7310 C.3    53  ARG53       0.0489
     51  CD       278.9630   -4.4370  -13.1790 C.3    53  ARG53       0.2205
     52  NE       278.7640   -3.2840  -14.0560 N.pl3  53  ARG53      -0.0865
     53  CZ       279.6520   -2.8740  -14.9610 C.cat  53  ARG53       0.5346
     54  NH1      280.8140   -3.5010  -15.0840 N.pl3  53  ARG53       0.1354
     55  NH2      279.3880   -1.8190  -15.7230 N.pl3  53  ARG53       0.1354
     56  N        280.8050   -4.0390   -8.3370 N.am   54  ILE54      -0.1966
     57  CA       281.7560   -3.0080   -7.9470 C.3    54  ILE54       0.1727
     58  C        282.8170   -2.8180   -9.0320 C.2    54  ILE54       0.2616
     59  O        283.7430   -3.6290   -9.1980 O.2    54  ILE54      -0.2715
     60  CB       282.4000   -3.3610   -6.5930 C.3    54  ILE54       0.0290
     61  CG1      281.3060   -3.4190   -5.5200 C.3    54  ILE54       0.0022
     62  CG2      283.4870   -2.3630   -6.2080 C.3    54  ILE54       0.0023
     63  CD1      281.8170   -3.6110   -4.1090 C.3    54  ILE54       0.0001
     64  N        282.6780   -1.7120   -9.7470 N.am   55  ALA55      -0.1963
     65  CA       283.4720   -1.4520  -10.9340 C.3    55  ALA55       0.1728
     66  C        284.5710   -0.4360  -10.6570 C.2    55  ALA55       0.2616
     67  O        285.5000   -0.2890  -11.4450 O.2    55  ALA55      -0.2715
     68  CB       282.5690   -0.9550  -12.0510 C.3    55  ALA55       0.0334
     69  N        284.4630    0.2610   -9.5320 N.am   56  GLN56      -0.1963
     70  CA       285.4220    1.3010   -9.1690 C.3    56  GLN56       0.1733
     71  C        285.6070    1.3600   -7.6520 C.2    56  GLN56       0.2616
     72  O        284.9760    0.6000   -6.9210 O.2    56  GLN56      -0.2715
     73  CB       284.9690    2.6540   -9.7280 C.3    56  GLN56       0.0408
     74  CG       285.1200    2.7760  -11.2360 C.3    56  GLN56       0.0908
     75  CD       284.6440    4.1110  -11.7710 C.2    56  GLN56       0.2608
     76  OE1      283.7630    4.7480  -11.1960 O.2    56  GLN56      -0.2717
     77  NE2      285.2130    4.5360  -12.8870 N.am   56  GLN56      -0.0878
     78  N        286.4930    2.2350   -7.1870 N.am   57  ARG57      -0.1963
     79  CA       286.7760    2.3700   -5.7590 C.3    57  ARG57       0.1729
     80  C        287.2590    3.7790   -5.4090 C.2    57  ARG57       0.2616
     81  O        288.0100    4.3930   -6.1620 O.2    57  ARG57      -0.2715
     82  CB       287.8180    1.3420   -5.3070 C.3    57  ARG57       0.0348
     83  CG       289.0460    1.2650   -6.1990 C.3    57  ARG57       0.0492
     84  CD       289.0380   -0.0120   -7.0130 C.3    57  ARG57       0.2205
     85  NE       290.2360   -0.2330   -7.8270 N.pl3  57  ARG57      -0.0865
     86  CZ       290.9420   -1.3730   -7.8010 C.cat  57  ARG57       0.5346
     87  NH1      290.6640   -2.3020   -6.8950 N.pl3  57  ARG57       0.1354
     88  NH2      291.9280   -1.5780   -8.6660 N.pl3  57  ARG57       0.1354
     89  N        286.8120    4.2870   -4.2660 N.am   58  MET58      -0.1963
     90  CA       287.2510    5.5940   -3.7740 C.3    58  MET58       0.1736
     91  C        288.1060    5.4400   -2.5300 C.2    58  MET58       0.2616
     92  O        287.5910    5.0820   -1.4800 O.2    58  MET58      -0.2715
     93  CB       286.0570    6.4680   -3.4040 C.3    58  MET58       0.0427
     94  CG       286.4360    7.9030   -3.0830 C.3    58  MET58       0.0599
     95  SD       285.0490    8.8550   -2.4390 S.3    58  MET58      -0.1393
     96  CE       285.7190   10.5090   -2.5350 C.3    58  MET58       0.0692
     97  N        289.3910    5.7180   -2.6340 N.am   59  ARG59      -0.1977
     98  CA       290.2670    5.6390   -1.4680 C.3    59  ARG59       0.1597
     99  C        289.8070    6.6330   -0.4090 C.2    59  ARG59       0.2287
    100  O        289.9110    7.8470   -0.5970 O.2    59  ARG59      -0.2864
    101  CB       291.7220    5.9200   -1.8560 C.3    59  ARG59       0.0334
    102  CG       292.2700    4.9470   -2.8830 C.3    59  ARG59       0.0492
    103  CD       292.2660    3.5170   -2.3670 C.3    59  ARG59       0.2205
    104  NE       292.5140    2.5620   -3.4420 N.pl3  59  ARG59      -0.0865
    105  CZ       293.2220    1.4440   -3.3130 C.cat  59  ARG59       0.5346
    106  NH1      293.7450    1.1110   -2.1390 N.pl3  59  ARG59       0.1354
    107  NH2      293.3950    0.6550   -4.3670 N.pl3  59  ARG59       0.1354
    108  N        279.0020   16.8740    0.5960 N.3    71  ARG71      -0.1245
    109  CA       277.8550   16.4590   -0.2010 C.3    71  ARG71       0.1563
    110  C        276.9010   15.5750    0.5990 C.2    71  ARG71       0.2260
    111  O        275.7900   15.2890    0.1560 O.2    71  ARG71      -0.2867
    112  CB       278.3000   15.7720   -1.4940 C.3    71  ARG71       0.0307
    113  CG       279.3530   14.6920   -1.3240 C.3    71  ARG71       0.0489
    114  CD       279.7380   14.1080   -2.6730 C.3    71  ARG71       0.2205
    115  NE       280.9460   13.2870   -2.6100 N.pl3  71  ARG71      -0.0865
    116  CZ       281.3150   12.4380   -3.5710 C.cat  71  ARG71       0.5346
    117  NH1      280.5580   12.2880   -4.6530 N.pl3  71  ARG71       0.1354
    118  NH2      282.4540   11.7620   -3.4570 N.pl3  71  ARG71       0.1354
    119  N        287.8200   -6.8130    1.7540 N.3   107  TYR107     -0.1227
    120  CA       288.4030   -6.1950    0.5700 C.3   107  TYR107      0.1736
    121  C        288.3440   -4.6730    0.6610 C.2   107  TYR107      0.2595
    122  O        289.3640   -4.0000    0.5190 O.2   107  TYR107     -0.2718
    123  CB       287.6950   -6.6690   -0.6960 C.3   107  TYR107      0.0548
    124  CG       288.3080   -6.1470   -1.9590 C.ar  107  TYR107     -0.0200
    125  CD1      287.9890   -4.8930   -2.4030 C.ar  107  TYR107     -0.0009
    126  CD2      289.1870   -6.9100   -2.7120 C.ar  107  TYR107     -0.0009
    127  CE1      288.5160   -4.3910   -3.5580 C.ar  107  TYR107      0.0417
    128  CE2      289.7310   -6.4120   -3.8770 C.ar  107  TYR107      0.0417
    129  CZ       289.3860   -5.1490   -4.2970 C.ar  107  TYR107      0.1957
    130  OH       289.9170   -4.6370   -5.4550 O.3   107  TYR107     -0.2866
    131  N        287.1530   -4.1340    0.9010 N.am  108  LEU108     -0.1980
    132  CA       286.9690   -2.6880    0.9350 C.3   108  LEU108      0.1596
    133  C        287.7970   -2.0480    2.0370 C.2   108  LEU108      0.2287
    134  O        288.3380   -0.9560    1.8600 O.2   108  LEU108     -0.2864
    135  CB       285.4950   -2.3160    1.1200 C.3   108  LEU108      0.0297
    136  CG       284.7940   -1.7620   -0.1240 C.3   108  LEU108      0.0022
    137  CD1      285.6880   -0.7680   -0.8410 C.3   108  LEU108      0.0001
    138  CD2      284.3820   -2.8750   -1.0670 C.3   108  LEU108      0.0001
    139  N        291.4930   -2.1240    1.0970 N.3   111  LYS111     -0.1245
    140  CA       291.7950   -1.0640    0.1510 C.3   111  LYS111      0.1561
    141  C        291.6580    0.2970    0.8120 C.2   111  LYS111      0.2260
    142  O        292.1950    1.2910    0.3190 O.2   111  LYS111     -0.2867
    143  CB       290.8380   -1.1220   -1.0370 C.3   111  LYS111      0.0271
    144  CG       290.9150   -2.4040   -1.8370 C.3   111  LYS111      0.0035
    145  CD       292.2930   -2.6100   -2.4350 C.3   111  LYS111      0.0206
    146  CE       292.2530   -3.6780   -3.5040 C.3   111  LYS111      0.1093
    147  NZ       293.5860   -3.9270   -4.1140 N.3   111  LYS111     -0.1314
    148  N        283.5650    0.9620   -2.5360 N.3   115  GLY115     -0.1210
    149  CA       283.1330    0.1700   -3.6650 C.3   115  GLY115      0.1956
    150  C        282.2040    0.9590   -4.5560 C.2   115  GLY115      0.2611
    151  O        281.0450    1.1610   -4.2220 O.2   115  GLY115     -0.2717
    152  N        282.7200    1.4190   -5.6770 N.am  116  ILE116     -0.1979
    153  CA       281.9720    2.2870   -6.5650 C.3   116  ILE116      0.1595
    154  C        281.1910    1.4730   -7.5740 C.2   116  ILE116      0.2287
    155  O        281.7630    0.7280   -8.3770 O.2   116  ILE116     -0.2864
    156  CB       282.9090    3.2510   -7.3130 C.3   116  ILE116      0.0276
    157  CG1      283.6440    4.1500   -6.3300 C.3   116  ILE116      0.0022
    158  CG2      282.1390    4.0920   -8.3260 C.3   116  ILE116      0.0022
    159  CD1      282.7330    5.1110   -5.6210 C.3   116  ILE116      0.0001
    160  N        276.9650    7.0420   -8.9040 N.3   130  VAL130     -0.1245
    161  CA       277.9880    6.3970   -8.1170 C.3   130  VAL130      0.1561
    162  C        277.4300    5.9450   -6.7860 C.2   130  VAL130      0.2260
    163  O        277.0020    6.7570   -5.9700 O.2   130  VAL130     -0.2867
    164  CB       279.1940    7.3380   -7.8900 C.3   130  VAL130      0.0252
    165  CG1      280.0230    6.8940   -6.6990 C.3   130  VAL130      0.0019
    166  CG2      280.0700    7.3800   -9.1250 C.3   130  VAL130      0.0019
    167  N        278.7070    4.4540   -3.5480 N.3   132  GLN132     -0.1245
    168  CA       279.9530    4.2850   -2.8280 C.3   132  GLN132      0.1566
    169  C        279.7570    3.3290   -1.6710 C.2   132  GLN132      0.2260
    170  O        279.0730    3.6450   -0.7020 O.2   132  GLN132     -0.2867
    171  CB       280.4300    5.6350   -2.2900 C.3   132  GLN132      0.0367
    172  CG       280.5930    6.7030   -3.3560 C.3   132  GLN132      0.0905
    173  CD       280.7840    8.0880   -2.7720 C.2   132  GLN132      0.2608
    174  OE1      279.8250    8.8210   -2.5570 O.2   132  GLN132     -0.2717
    175  NE2      282.0240    8.4560   -2.5080 N.am  132  GLN132     -0.0878
    176  N        276.5820   12.7660   -9.6580 N.3   169  VAL169     -0.1245
    177  CA       277.8300   13.3950  -10.0880 C.3   169  VAL169      0.1561
    178  C        278.9110   13.1880   -9.0280 C.2   169  VAL169      0.2260
    179  O        279.6030   12.1520   -9.0830 O.2   169  VAL169     -0.2867
    180  CB       277.6670   14.9080  -10.3860 C.3   169  VAL169      0.0252
    181  CG1      278.9760   15.5070  -10.8830 C.3   169  VAL169      0.0019
    182  CG2      276.5620   15.1410  -11.4050 C.3   169  VAL169      0.0019
@<TRIPOS>BOND
     1    55    53    1
     2    54    53    1
     3    53    52    2
     4    52    51    1
     5    51    50    1
     6    77    75   am
     7    68    65    1
     8    75    74    1
     9    75    76    2
    10    50    49    1
    11    67    66    2
    12   182   180    1
    13    74    73    1
    14    29    28    2
    15    65    66    1
    16    65    64    1
    17   181   180    1
    18    49    46    1
    19    66    69   am
    20   180   177    1
    21    17    16    2
    22   177   176    1
    23   177   178    1
    24    28    30   am
    25    28    27    1
    26    64    58   am
    27    73    70    1
    28    41    40    2
    29    44    43    1
    30    44    38    1
    31    43    42    1
    32    69    70    1
    33    46    45    1
    34    46    47    1
    35    48    47    2
    36    59    58    2
    37    70    71    1
    38   166   164    1
    39    16    15    1
    40    16    23   am
    41   179   178    2
    42    58    57    1
    43    38    39    1
    44    47    56   am
    45   160   161    1
    46    27    24    1
    47    88    86    1
    48    15    14    1
    49    15    18    1
    50    40    39    1
    51    24    23    1
    52    24    25    1
    53   155   154    2
    54    56    57    1
    55    42    39    1
    56   158   156    1
    57    14     8   am
    58   161   164    1
    59   161   162    1
    60    57    60    1
    61   164   165    1
    62    85    86    2
    63    85    84    1
    64     5     2    1
    65    86    87    1
    66     4     3    2
    67    71    78   am
    68    71    72    2
    69   154   153    1
    70    18    19    1
    71    19    20    1
    72   156   153    1
    73   156   157    1
    74    78    79    1
    75     8     7    1
    76     8     9    2
    77    25    26    2
    78    20    21    1
    79    84    83    1
    80     3     2    1
    81     3     6   am
    82     7     6    1
    83     7    10    1
    84   162   163    2
    85     2     1    1
    86    60    62    1
    87    60    61    1
    88   153   152    1
    89    37    35    1
    90   157   159    1
    91    83    82    1
    92    81    80    2
    93    22    21    1
    94    10    11    1
    95    79    80    1
    96    79    82    1
    97   152   150   am
    98    61    63    1
    99   130   129    1
   100    80    89   am
   101    35    36    1
   102    35    32    1
   103    12    11    1
   104    11    13    1
   105   117   116    1
   106   150   151    2
   107   150   149    1
   108   107   105    1
   109    31    32    1
   110   129   128   ar
   111   129   127   ar
   112    89    90    1
   113    32    33    1
   114   147   146    1
   115   128   126   ar
   116    90    93    1
   117    90    91    1
   118   149   148    1
   119   116   118    1
   120   116   115    2
   121   127   125   ar
   122   167   168    1
   123   146   145    1
   124   104   105    2
   125   104   103    1
   126    93    94    1
   127   172   173    1
   128   172   171    1
   129   105   106    1
   130    94    95    1
   131   102   103    1
   132   102   101    1
   133   168   171    1
   134   168   169    1
   135   173   174    2
   136   173   175   am
   137   126   124   ar
   138    33    34    2
   139   114   115    1
   140   114   113    1
   141    97    91   am
   142    97    98    1
   143    96    95    1
   144    91    92    2
   145   145   144    1
   146   125   124   ar
   147   124   123    1
   148   101    98    1
   149   144   143    1
   150   169   170    2
   151   112   113    1
   152   112   109    1
   153    98    99    1
   154   138   136    1
   155   143   140    1
   156   137   136    1
   157   123   120    1
   158   100    99    2
   159   109   108    1
   160   109   110    1
   161   136   135    1
   162   140   141    1
   163   140   139    1
   164   111   110    2
   165   142   141    2
   166   122   121    2
   167   120   121    1
   168   120   119    1
   169   121   131   am
   170   131   132    1
   171   132   135    1
   172   132   133    1
   173   134   133    2
