@<TRIPOS>MOLECULE
tmp/2rtiB00.pdb
 116 111 0 0 0
SMALL
GASTEIGER

@<TRIPOS>ATOM
      1  N          9.3340    8.2150    8.6900 N.3    11  ASN11      -0.1240
      2  CA         9.7090    7.1000    7.7320 C.3    11  ASN11       0.1653
      3  C          8.9520    5.8310    8.1280 C.2    11  ASN11       0.2266
      4  O          8.2270    5.8080    9.1070 O.2    11  ASN11      -0.2867
      5  CB        11.2240    6.7390    7.7290 C.3    11  ASN11       0.1155
      6  CG        11.7980    6.2300    9.0120 C.2    11  ASN11       0.2627
      7  OD1       11.1300    5.8950    9.9690 O.2    11  ASN11      -0.2716
      8  ND2       13.0920    6.1520    9.0800 N.am   11  ASN11      -0.0877
      9  N          9.7780    3.3680    9.6920 N.3    13  LEU13      -0.1245
     10  CA        10.0710    2.8150   11.0480 C.3    13  LEU13       0.1561
     11  C          9.3700    3.6860   12.1030 C.2    13  LEU13       0.2260
     12  O          9.3200    3.3080   13.2590 O.2    13  LEU13      -0.2867
     13  CB        11.5660    2.8620   11.3850 C.3    13  LEU13       0.0270
     14  CG        12.4350    2.2220   10.2850 C.3    13  LEU13       0.0019
     15  CD1       13.9160    2.2720   10.7540 C.3    13  LEU13       0.0001
     16  CD2       12.0140    0.7730   10.1100 C.3    13  LEU13       0.0001
     17  N         10.3030    6.8860   12.5730 N.3    15  SER15      -0.1217
     18  CA        11.2530    7.9360   13.0320 C.3    15  SER15       0.1889
     19  C         10.6880    9.3120   12.5320 C.2    15  SER15       0.2288
     20  O          9.9010    9.3310   11.5900 O.2    15  SER15      -0.2866
     21  CB        12.6590    7.6170   12.4080 C.3    15  SER15       0.2089
     22  OG        13.0200    6.3370   12.9240 O.3    15  SER15      -0.2183
     23  N         16.4920   14.8890   14.4610 N.3    31  TYR31      -0.1241
     24  CA        16.0560   13.5260   14.0650 C.3    31  TYR31       0.1605
     25  C         15.7920   12.7570   15.3550 C.2    31  TYR31       0.2264
     26  O         16.5050   12.8810   16.3330 O.2    31  TYR31      -0.2867
     27  CB        17.1970   12.8370   13.2400 C.3    31  TYR31       0.0534
     28  CG        16.6910   11.6300   12.4280 C.ar   31  TYR31      -0.0201
     29  CD1       16.4980   10.3810   13.0060 C.ar   31  TYR31      -0.0009
     30  CD2       16.4130   11.8050   11.1030 C.ar   31  TYR31      -0.0009
     31  CE1       16.0260    9.3210   12.2530 C.ar   31  TYR31       0.0417
     32  CE2       15.9480   10.7580   10.3520 C.ar   31  TYR31       0.0417
     33  CZ        15.7500    9.5110   10.9230 C.ar   31  TYR31       0.1957
     34  OH        15.2660    8.4930   10.1460 O.3    31  TYR31      -0.2866
     35  N         14.9100    8.7890   16.1520 N.3    33  SER33      -0.1217
     36  CA        14.7290    7.4070   15.5940 C.3    33  SER33       0.1889
     37  C         13.8170    6.5630   16.4590 C.2    33  SER33       0.2288
     38  O         13.8280    6.6600   17.6700 O.2    33  SER33      -0.2866
     39  CB        16.0750    6.6770   15.5190 C.3    33  SER33       0.2089
     40  OG        15.8360    5.4180   14.8870 O.3    33  SER33      -0.2183
     41  N         14.0340    3.3470   16.3370 N.3    35  VAL35      -0.1231
     42  CA        14.8160    2.1090   16.6430 C.3    35  VAL35       0.1692
     43  C         16.2530    2.3870   16.9950 C.2    35  VAL35       0.2592
     44  O         16.7260    3.4810   16.7490 O.2    35  VAL35      -0.2718
     45  CB        14.7840    1.2110   15.4130 C.3    35  VAL35       0.0266
     46  CG1       13.3650    0.9380   14.9670 C.3    35  VAL35       0.0020
     47  CG2       15.4940    1.8920   14.2280 C.3    35  VAL35       0.0020
     48  N         16.9230    1.4050   17.5440 N.am   36  GLY36      -0.1957
     49  CA        18.3550    1.5790   17.9050 C.3    36  GLY36       0.1869
     50  C         18.6700    1.9840   19.3420 C.2    36  GLY36       0.2309
     51  O         17.8570    2.0100   20.2420 O.2    36  GLY36      -0.2863
     52  N         24.9640   10.0000   16.5840 N.3    67  TRP67      -0.1241
     53  CA        24.0510    9.5250   17.6620 C.3    67  TRP67       0.1605
     54  C         24.5500    9.7780   19.0740 C.2    67  TRP67       0.2264
     55  O         24.7130    8.9060   19.9010 O.2    67  TRP67      -0.2867
     56  CB        23.7500    7.9530   17.4350 C.3    67  TRP67       0.0550
     57  CG        23.1580    7.6950   16.0330 C.ar   67  TRP67       0.0003
     58  CD1       23.8260    7.1700   14.9610 C.ar   67  TRP67       0.0946
     59  CD2       21.8760    7.9740   15.6650 C.ar   67  TRP67       0.0152
     60  NE1       22.9050    7.1610   13.9990 N.ar   67  TRP67      -0.2442
     61  CE2       21.7000    7.6200   14.3080 C.ar   67  TRP67       0.0810
     62  CE3       20.8140    8.5230   16.4090 C.ar   67  TRP67       0.0012
     63  CZ2       20.4650    7.8210   13.7040 C.ar   67  TRP67       0.0191
     64  CZ3       19.5800    8.7220   15.8010 C.ar   67  TRP67       0.0001
     65  CH2       19.4040    8.3690   14.4450 C.ar   67  TRP67       0.0015
     66  N         25.1570    8.2150   11.2320 N.3    78  THR78      -0.1218
     67  CA        24.4010    7.7450   10.0490 C.3    78  THR78       0.1862
     68  C         24.3140    8.8640    8.9830 C.2    78  THR78       0.2287
     69  O         24.1300   10.0160    9.3680 O.2    78  THR78      -0.2866
     70  CB        22.9300    7.3640   10.4350 C.3    78  THR78       0.1770
     71  OG1       23.0480    6.3470   11.4020 O.3    78  THR78      -0.2211
     72  CG2       22.1690    6.7450    9.2580 C.3    78  THR78       0.0375
     73  N         22.3450    9.8110    5.3100 N.3    80  TRP80      -0.1241
     74  CA        21.2430    9.4150    4.4250 C.3    80  TRP80       0.1605
     75  C         21.5500   10.1920    3.1440 C.2    80  TRP80       0.2264
     76  O         21.8700   11.3740    3.2170 O.2    80  TRP80      -0.2867
     77  CB        19.8690    9.8710    4.9460 C.3    80  TRP80       0.0550
     78  CG        19.2530    9.0950    6.0980 C.ar   80  TRP80       0.0003
     79  CD1       18.2740    8.1680    5.9080 C.ar   80  TRP80       0.0946
     80  CD2       19.5120    9.2240    7.4270 C.ar   80  TRP80       0.0152
     81  NE1       18.0070    7.8080    7.1480 N.ar   80  TRP80      -0.2442
     82  CE2       18.6760    8.3690    8.1330 C.ar   80  TRP80       0.0810
     83  CE3       20.4110   10.0170    8.1370 C.ar   80  TRP80       0.0012
     84  CZ2       18.7190    8.3000    9.5220 C.ar   80  TRP80       0.0191
     85  CZ3       20.4600    9.9520    9.5250 C.ar   80  TRP80       0.0001
     86  CH2       19.6100    9.0900   10.2270 C.ar   80  TRP80       0.0015
     87  N         20.9680    4.6680    3.4110 N.3    96  TRP96      -0.1241
     88  CA        21.8050    5.2050    4.4890 C.3    96  TRP96       0.1605
     89  C         22.9200    4.2740    4.8540 C.2    96  TRP96       0.2264
     90  O         22.8590    3.0970    4.5480 O.2    96  TRP96      -0.2867
     91  CB        20.9240    5.4690    5.7510 C.3    96  TRP96       0.0550
     92  CG        19.9600    4.3440    6.1980 C.ar   96  TRP96       0.0003
     93  CD1       18.6210    4.2810    5.8780 C.ar   96  TRP96       0.0946
     94  CD2       20.2600    3.2720    6.9840 C.ar   96  TRP96       0.0152
     95  NE1       18.2010    3.1740    6.4960 N.ar   96  TRP96      -0.2442
     96  CE2       19.0980    2.4990    7.1830 C.ar   96  TRP96       0.0810
     97  CE3       21.4630    2.8890    7.5760 C.ar   96  TRP96       0.0012
     98  CZ2       19.1300    1.3470    7.9690 C.ar   96  TRP96       0.0191
     99  CZ3       21.5030    1.7280    8.3700 C.ar   96  TRP96       0.0001
    100  CH2       20.3330    0.9640    8.5610 C.ar   96  TRP96       0.0015
    101  N         25.2680    3.5010    8.2970 N.3    98  LEU98      -0.1245
    102  CA        25.4000    3.7010    9.7720 C.3    98  LEU98       0.1561
    103  C         26.7690    3.0740   10.1250 C.2    98  LEU98       0.2260
    104  O         26.9480    1.8630   10.0320 O.2    98  LEU98      -0.2867
    105  CB        24.2330    2.9780   10.4840 C.3    98  LEU98       0.0270
    106  CG        24.4180    2.7640   12.0440 C.3    98  LEU98       0.0019
    107  CD1       24.8020    4.0480   12.8350 C.3    98  LEU98       0.0001
    108  CD2       23.0310    2.3020   12.5940 C.3    98  LEU98       0.0001
    109  N         15.4540    4.1130    3.6540 N.3   116  ASP116     -0.1239
    110  CA        14.2490    4.6850    4.3380 C.3   116  ASP116      0.1674
    111  C         13.5160    5.5700    3.3400 C.2   116  ASP116      0.2266
    112  O         14.1410    6.1750    2.4790 O.2   116  ASP116     -0.2867
    113  CB        14.5690    5.6220    5.5170 C.3   116  ASP116      0.1410
    114  CG        15.1990    4.9310    6.7460 C.2   116  ASP116      0.3668
    115  OD1       15.0140    3.7390    6.9250 O.co2 116  ASP116     -0.2456
    116  OD2       15.8540    5.6480    7.4840 O.co2 116  ASP116     -0.2456
@<TRIPOS>BOND
     1   112   111    2
     2    75    76    2
     3    75    74    1
     4   111   110    1
     5    87    88    1
     6   109   110    1
     7   110   113    1
     8    74    77    1
     9    74    73    1
    10    88    89    1
    11    88    91    1
    12    90    89    2
    13    77    78    1
    14   113   114    1
    15    91    92    1
    16    93    92   ar
    17    93    95   ar
    18    79    78   ar
    19    79    81   ar
    20    78    80   ar
    21    92    94   ar
    22    95    96   ar
    23   114   115   ar
    24   114   116   ar
    25    94    96   ar
    26    94    97   ar
    27    81    82   ar
    28    96    98   ar
    29    80    82   ar
    30    80    83   ar
    31    97    99   ar
    32     5     2    1
    33     5     6    1
    34     2     3    1
    35     2     1    1
    36    98   100   ar
    37     3     4    2
    38    82    84   ar
    39    83    85   ar
    40   101   102    1
    41    99   100   ar
    42    68    69    2
    43    68    67    1
    44     6     8   am
    45     6     7    2
    46    72    70    1
    47    84    86   ar
    48    85    86   ar
    49     9    10    1
    50   102   103    1
    51   102   105    1
    52   104   103    2
    53    67    70    1
    54    67    66    1
    55    16    14    1
    56    34    33    1
    57    14    15    1
    58    14    13    1
    59    32    33   ar
    60    32    30   ar
    61    70    71    1
    62   105   106    1
    63    33    31   ar
    64    10    13    1
    65    10    11    1
    66    30    28   ar
    67    20    19    2
    68   106   108    1
    69   106   107    1
    70    11    12    2
    71    31    29   ar
    72    21    22    1
    73    21    18    1
    74    28    29   ar
    75    28    27    1
    76    19    18    1
    77    17    18    1
    78    27    24    1
    79    63    61   ar
    80    63    65   ar
    81    60    61   ar
    82    60    58   ar
    83    24    23    1
    84    24    25    1
    85    47    45    1
    86    61    59   ar
    87    65    64   ar
    88    40    39    1
    89    58    57   ar
    90    46    45    1
    91    25    26    2
    92    45    42    1
    93    39    36    1
    94    36    35    1
    95    36    37    1
    96    59    57   ar
    97    59    62   ar
    98    64    62   ar
    99    57    56    1
   100    41    42    1
   101    37    38    2
   102    52    53    1
   103    42    43    1
   104    44    43    2
   105    43    48   am
   106    56    53    1
   107    48    49    1
   108    53    54    1
   109    49    50    1
   110    54    55    2
   111    50    51    2
