@<TRIPOS>MOLECULE
tmp/2rtqA00.pdb
 146 138 0 0 0
SMALL
GASTEIGER

@<TRIPOS>ATOM
      1  N         42.4980   12.1080   -0.3810 N.3    11  ASN11      -0.1240
      2  CA        42.1780   10.6740   -0.5320 C.3    11  ASN11       0.1653
      3  C         42.9060   10.1890   -1.7370 C.2    11  ASN11       0.2266
      4  O         43.5370   10.9660   -2.4310 O.2    11  ASN11      -0.2867
      5  CB        40.6390   10.3960   -0.7410 C.3    11  ASN11       0.1155
      6  CG        39.9670   10.9800   -2.0110 C.2    11  ASN11       0.2627
      7  OD1       40.5790   11.2680   -3.0240 O.2    11  ASN11      -0.2716
      8  ND2       38.6750   11.1680   -2.0030 N.am   11  ASN11      -0.0877
      9  N         42.0350    9.5110   -4.6240 N.3    13  LEU13      -0.1245
     10  CA        41.6840   10.0520   -5.9580 C.3    13  LEU13       0.1561
     11  C         42.3690   11.3900   -6.1320 C.2    13  LEU13       0.2260
     12  O         42.4340   11.8600   -7.2490 O.2    13  LEU13      -0.2867
     13  CB        40.1390   10.3130   -6.1250 C.3    13  LEU13       0.0270
     14  CG        39.2590    8.9830   -5.9510 C.3    13  LEU13       0.0019
     15  CD1       37.7200    9.2970   -5.9990 C.3    13  LEU13       0.0001
     16  CD2       39.6010    8.0050   -7.0890 C.3    13  LEU13       0.0001
     17  N         41.4480   14.1290   -4.1690 N.3    15  SER15      -0.1217
     18  CA        40.4600   15.1850   -3.7690 C.3    15  SER15       0.1889
     19  C         40.9590   15.7490   -2.4190 C.2    15  SER15       0.2288
     20  O         41.6440   15.0290   -1.6970 O.2    15  SER15      -0.2866
     21  CB        39.0460   14.5470   -3.6130 C.3    15  SER15       0.2089
     22  OG        38.6970   14.0700   -4.9140 O.3    15  SER15      -0.2183
     23  N         35.1740   20.9180    0.1210 N.3    31  TYR31      -0.1241
     24  CA        35.6700   19.7130   -0.5780 C.3    31  TYR31       0.1605
     25  C         36.0470   20.1140   -2.0030 C.2    31  TYR31       0.2264
     26  O         35.3220   20.8780   -2.6140 O.2    31  TYR31      -0.2867
     27  CB        34.5230   18.6680   -0.5530 C.3    31  TYR31       0.0534
     28  CG        35.0320   17.2480   -0.7820 C.ar   31  TYR31      -0.0201
     29  CD1       35.2300   16.7220   -2.0550 C.ar   31  TYR31      -0.0009
     30  CD2       35.3260   16.4540    0.3090 C.ar   31  TYR31      -0.0009
     31  CE1       35.7100   15.4370   -2.2130 C.ar   31  TYR31       0.0417
     32  CE2       35.8040   15.1760    0.1410 C.ar   31  TYR31       0.0417
     33  CZ        35.9920   14.6790   -1.1030 C.ar   31  TYR31       0.1957
     34  OH        36.4700   13.4080   -1.2200 O.3    31  TYR31      -0.2866
     35  N         36.9970   18.0640   -5.4120 N.3    33  SER33      -0.1217
     36  CA        37.0880   16.6560   -5.9610 C.3    33  SER33       0.1889
     37  C         37.9650   16.6910   -7.1670 C.2    33  SER33       0.2288
     38  O         38.0400   17.6760   -7.8760 O.2    33  SER33      -0.2866
     39  CB        35.6370   16.0250   -6.4420 C.3    33  SER33       0.2089
     40  OG        35.8030   14.6860   -6.9520 O.3    33  SER33      -0.2183
     41  N         37.5570   14.2280   -9.2860 N.3    35  VAL35      -0.1231
     42  CA        36.7550   13.5950  -10.3550 C.3    35  VAL35       0.1692
     43  C         35.3080   14.0330  -10.3990 C.2    35  VAL35       0.2593
     44  O         34.8080   14.7180   -9.5230 O.2    35  VAL35      -0.2718
     45  CB        36.8580   12.0410  -10.1260 C.3    35  VAL35       0.0266
     46  CG1       38.3700   11.5990  -10.0070 C.3    35  VAL35       0.0020
     47  CG2       36.1240   11.5900   -8.8140 C.3    35  VAL35       0.0020
     48  N         34.6790   13.5930  -11.4510 N.am   36  GLY36      -0.1942
     49  CA        33.2290   13.9040  -11.6600 C.3    36  GLY36       0.2014
     50  C         32.9390   15.2520  -12.3190 C.2    36  GLY36       0.2639
     51  O         33.8370   15.9770  -12.6950 O.2    36  GLY36      -0.2714
     52  N         31.6700   15.5430  -12.4310 N.am   37  ASN37      -0.1958
     53  CA        31.1900   16.8270  -13.0490 C.3    37  ASN37       0.1819
     54  C         31.1870   17.8230  -11.8690 C.2    37  ASN37       0.2621
     55  O         30.1700   18.3380  -11.4310 O.2    37  ASN37      -0.2715
     56  CB        29.7430   16.5970  -13.6480 C.3    37  ASN37       0.1195
     57  CG        29.0860   17.9460  -14.0000 C.2    37  ASN37       0.2630
     58  OD1       29.7430   18.9490  -14.1840 O.2    37  ASN37      -0.2716
     59  ND2       27.7990   18.0400  -14.1140 N.am   37  ASN37      -0.0877
     60  N         32.3710   18.0470  -11.3600 N.am   38  ALA38      -0.1977
     61  CA        32.5560   18.9750  -10.2170 C.3    38  ALA38       0.1597
     62  C         33.7350   19.8960  -10.4860 C.2    38  ALA38       0.2287
     63  O         34.8020   19.4070  -10.8010 O.2    38  ALA38      -0.2864
     64  CB        32.8290   18.1740   -8.9350 C.3    38  ALA38       0.0319
     65  N         26.7200   18.6560   -4.9230 N.3    67  TRP67      -0.1241
     66  CA        27.6550   19.1440   -5.9460 C.3    67  TRP67       0.1605
     67  C         27.1870   20.3270   -6.7630 C.2    67  TRP67       0.2264
     68  O         27.0100   20.2610   -7.9620 O.2    67  TRP67      -0.2867
     69  CB        28.0070   17.9580   -6.8640 C.3    67  TRP67       0.0550
     70  CG        28.6590   16.8060   -6.0610 C.ar   67  TRP67       0.0003
     71  CD1       28.0600   15.5920   -5.7630 C.ar   67  TRP67       0.0946
     72  CD2       29.9100   16.8020   -5.5320 C.ar   67  TRP67       0.0152
     73  NE1       28.9830   14.9420   -5.0680 N.ar   67  TRP67      -0.2442
     74  CE2       30.1240   15.5740   -4.8760 C.ar   67  TRP67       0.0810
     75  CE3       30.9250   17.7740   -5.5560 C.ar   67  TRP67       0.0012
     76  CZ2       31.3250   15.3180   -4.2570 C.ar   67  TRP67       0.0191
     77  CZ3       32.1320   17.5160   -4.9240 C.ar   67  TRP67       0.0001
     78  CH2       32.3310   16.2880   -4.2750 C.ar   67  TRP67       0.0015
     79  N         26.0470   19.7020  -10.5340 N.3    74  ALA74      -0.1245
     80  CA        25.9550   18.3020  -11.0400 C.3    74  ALA74       0.1562
     81  C         24.6240   17.6360  -10.6300 C.2    74  ALA74       0.2260
     82  O         24.3830   16.5050  -11.0050 O.2    74  ALA74      -0.2867
     83  CB        27.1340   17.4920  -10.4720 C.3    74  ALA74       0.0290
     84  N         23.5820   16.3900   -7.8140 N.3    76  SER76      -0.1217
     85  CA        23.8120   15.1300   -7.0990 C.3    76  SER76       0.1889
     86  C         24.3730   15.5190   -5.7350 C.2    76  SER76       0.2288
     87  O         24.7400   16.6720   -5.5270 O.2    76  SER76      -0.2866
     88  CB        24.8140   14.2840   -7.9010 C.3    76  SER76       0.2089
     89  OG        25.9510   15.1080   -8.0080 O.3    76  SER76      -0.2183
     90  N         26.6580   13.6900   -2.3180 N.3    78  THR78      -0.1218
     91  CA        27.3840   12.5080   -1.7890 C.3    78  THR78       0.1862
     92  C         27.4120   12.6200   -0.2490 C.2    78  THR78       0.2287
     93  O         27.5240   13.7260    0.2670 O.2    78  THR78      -0.2866
     94  CB        28.8840   12.4840   -2.2780 C.3    78  THR78       0.1770
     95  OG1       28.8820   12.4560   -3.6980 O.3    78  THR78      -0.2211
     96  CG2       29.6700   11.2440   -1.8250 C.3    78  THR78       0.0375
     97  N         29.4000   10.7450    3.0620 N.3    80  TRP80      -0.1241
     98  CA        30.5280    9.8490    3.4080 C.3    80  TRP80       0.1605
     99  C         30.1970    9.4430    4.8300 C.2    80  TRP80       0.2264
    100  O         29.8930   10.3400    5.6080 O.2    80  TRP80      -0.2867
    101  CB        31.8550   10.6250    3.4130 C.3    80  TRP80       0.0550
    102  CG        32.4860   10.8850    2.0320 C.ar   80  TRP80       0.0003
    103  CD1       33.4340   10.0700    1.4770 C.ar   80  TRP80       0.0946
    104  CD2       32.2420   11.9110    1.1810 C.ar   80  TRP80       0.0152
    105  NE1       33.6930   10.6650    0.3290 N.ar   80  TRP80      -0.2442
    106  CE2       33.0360   11.7750    0.0550 C.ar   80  TRP80       0.0810
    107  CE3       31.3900   12.9930    1.2610 C.ar   80  TRP80       0.0012
    108  CZ2       32.9830   12.7100   -0.9730 C.ar   80  TRP80       0.0191
    109  CZ3       31.3280   13.9290    0.2340 C.ar   80  TRP80       0.0001
    110  CH2       32.1260   13.7810   -0.8720 C.ar   80  TRP80       0.0015
    111  N         30.8260    5.7270    0.9090 N.3    96  TRP96      -0.1241
    112  CA        29.9660    6.8550    0.4860 C.3    96  TRP96       0.1605
    113  C         28.8770    6.4210   -0.4590 C.2    96  TRP96       0.2264
    114  O         28.9740    5.3770   -1.0690 O.2    96  TRP96      -0.2867
    115  CB        30.8730    7.9810   -0.1900 C.3    96  TRP96       0.0550
    116  CG        31.8140    7.5130   -1.3220 C.ar   96  TRP96       0.0003
    117  CD1       33.1520    7.3220   -1.1610 C.ar   96  TRP96       0.0946
    118  CD2       31.4760    7.2370   -2.6310 C.ar   96  TRP96       0.0152
    119  NE1       33.5450    6.9480   -2.3690 N.ar   96  TRP96      -0.2442
    120  CE2       32.6130    6.8640   -3.3150 C.ar   96  TRP96       0.0810
    121  CE3       30.2640    7.2650   -3.3190 C.ar   96  TRP96       0.0012
    122  CZ2       32.5340    6.5220   -4.6670 C.ar   96  TRP96       0.0191
    123  CZ3       30.1830    6.9260   -4.6650 C.ar   96  TRP96       0.0001
    124  CH2       31.3200    6.5500   -5.3420 C.ar   96  TRP96       0.0015
    125  N         26.4900    8.2890   -3.4770 N.3    98  LEU98      -0.1245
    126  CA        26.3780    9.4670   -4.3740 C.3    98  LEU98       0.1561
    127  C         25.0580    9.3080   -5.0540 C.2    98  LEU98       0.2260
    128  O         24.9290    8.3770   -5.8310 O.2    98  LEU98      -0.2867
    129  CB        27.5520    9.4110   -5.3470 C.3    98  LEU98       0.0270
    130  CG        27.4070   10.2800   -6.6310 C.3    98  LEU98       0.0019
    131  CD1       27.0930   11.7760   -6.3100 C.3    98  LEU98       0.0001
    132  CD2       28.7400   10.2000   -7.4070 C.3    98  LEU98       0.0001
    133  N         22.1310   10.9640   -7.5470 N.3   100  SER100     -0.1217
    134  CA        21.8830   11.9760   -8.6110 C.3   100  SER100      0.1889
    135  C         20.3750   12.1870   -8.6510 C.2   100  SER100      0.2288
    136  O         19.6420   11.2630   -8.3490 O.2   100  SER100     -0.2866
    137  CB        22.3430   11.4270   -9.9690 C.3   100  SER100      0.2089
    138  OG        23.7520   11.3730   -9.8960 O.3   100  SER100     -0.2183
    139  N         36.3640    5.5930    0.3270 N.3   116  ASP116     -0.1239
    140  CA        37.5370    6.4940    0.2150 C.3   116  ASP116      0.1674
    141  C         38.2890    6.5090    1.5590 C.2   116  ASP116      0.2266
    142  O         37.6600    6.4170    2.6110 O.2   116  ASP116     -0.2867
    143  CB        37.1780    8.0120   -0.0350 C.3   116  ASP116      0.1410
    144  CG        36.5470    8.4200   -1.3920 C.2   116  ASP116      0.3668
    145  OD1       36.6890    7.6860   -2.3560 O.co2 116  ASP116     -0.2456
    146  OD2       35.9480    9.4890   -1.3760 O.co2 116  ASP116     -0.2456
@<TRIPOS>BOND
     1    58    57    2
     2    59    57   am
     3    57    56    1
     4    56    53    1
     5    53    52    1
     6    53    54    1
     7    51    50    2
     8    52    50   am
     9    50    49    1
    10    54    55    2
    11    54    60   am
    12    49    48    1
    13    48    43   am
    14    60    61    1
    15    80    81    1
    16    80    79    1
    17    80    83    1
    18    82    81    2
    19    63    62    2
    20    62    61    1
    21    43    42    1
    22    43    44    2
    23    42    45    1
    24    42    41    1
    25    61    64    1
    26    45    46    1
    27    45    47    1
    28   137   138    1
    29   137   134    1
    30   135   134    1
    31   135   136    2
    32   134   133    1
    33    89    88    1
    34    68    67    2
    35    88    85    1
    36    38    37    2
    37    84    85    1
    38   132   130    1
    39    12    11    2
    40    37    36    1
    41    85    86    1
    42    16    14    1
    43    40    39    1
    44    69    70    1
    45    69    66    1
    46    67    66    1
    47   130   131    1
    48   130   129    1
    49    39    36    1
    50    11    10    1
    51    13    10    1
    52    13    14    1
    53    70    71   ar
    54    70    72   ar
    55    15    14    1
    56    36    35    1
    57    10     9    1
    58    66    65    1
    59   128   127    2
    60    71    73   ar
    61    86    87    2
    62    75    72   ar
    63    75    77   ar
    64    72    74   ar
    65   129   126    1
    66   124   122   ar
    67   124   123   ar
    68    73    74   ar
    69   127   126    1
    70    77    78   ar
    71    22    21    1
    72    74    76   ar
    73   122   120   ar
    74   123   121   ar
    75   126   125    1
    76    78    76   ar
    77    17    18    1
    78    18    21    1
    79    18    19    1
    80    95    94    1
    81   121   118   ar
    82   120   118   ar
    83   120   119   ar
    84     7     6    2
    85   118   116   ar
    86    26    25    2
    87     4     3    2
    88    19    20    2
    89   119   117   ar
    90   145   144   ar
    91    90    91    1
    92    94    96    1
    93    94    91    1
    94    31    29   ar
    95    31    33   ar
    96    29    28   ar
    97     6     8   am
    98     6     5    1
    99    25    24    1
   100    91    92    1
   101     3     2    1
   102   144   146   ar
   103   144   143    1
   104   116   117   ar
   105   116   115    1
   106    34    33    1
   107    33    32   ar
   108   114   113    2
   109   108   110   ar
   110   108   106   ar
   111   110   109   ar
   112    28    27    1
   113    28    30   ar
   114     5     2    1
   115    24    27    1
   116    24    23    1
   117     2     1    1
   118   113   112    1
   119    92    93    2
   120   115   112    1
   121   143   140    1
   122   106   105   ar
   123   106   104   ar
   124    32    30   ar
   125   140   139    1
   126   140   141    1
   127   109   107   ar
   128   105   103   ar
   129   112   111    1
   130   104   107   ar
   131   104   102   ar
   132   103   102   ar
   133   141   142    2
   134   102   101    1
   135    97    98    1
   136    98   101    1
   137    98    99    1
   138    99   100    2
