@<TRIPOS>MOLECULE
tmp/2ruiA00.pdb
 192 183 0 0 0
SMALL
GASTEIGER

@<TRIPOS>ATOM
      1  N        113.4120   11.1730  -14.8700 N.3     5  ASP5       -0.1239
      2  CA       112.6470   10.2110  -14.0850 C.3     5  ASP5        0.1674
      3  C        111.8840   10.9180  -12.9590 C.2     5  ASP5        0.2266
      4  O        112.3070   11.9590  -12.4600 O.2     5  ASP5       -0.2867
      5  CB       113.6060    9.1760  -13.4940 C.3     5  ASP5        0.1410
      6  CG       114.6510    9.8820  -12.6270 C.2     5  ASP5        0.3668
      7  OD1      114.3790   10.9860  -12.1860 O.co2   5  ASP5       -0.2456
      8  OD2      115.7120    9.3110  -12.4290 O.co2   5  ASP5       -0.2456
      9  N        111.4710    9.6960  -10.1040 N.3     7  SER7       -0.1217
     10  CA       111.9660    9.1090   -8.8650 C.3     7  SER7        0.1889
     11  C        112.6650   10.1460   -7.9800 C.2     7  SER7        0.2288
     12  O        113.4150    9.7950   -7.0680 O.2     7  SER7       -0.2866
     13  CB       112.9470    7.9900   -9.2100 C.3     7  SER7        0.2089
     14  OG       113.7360    8.3880  -10.3230 O.3     7  SER7       -0.2183
     15  N        110.9640   12.4010   -6.2330 N.3     9  ILE9       -0.1245
     16  CA       109.9560   12.8910   -5.2960 C.3     9  ILE9        0.1561
     17  C        110.5090   13.1150   -3.8860 C.2     9  ILE9        0.2260
     18  O        111.2990   12.3310   -3.3630 O.2     9  ILE9       -0.2867
     19  CB       108.8160   11.8790   -5.2120 C.3     9  ILE9        0.0252
     20  CG1      108.0880   11.8110   -6.5550 C.3     9  ILE9        0.0019
     21  CG2      107.8350   12.3070   -4.1190 C.3     9  ILE9        0.0019
     22  CD1      107.1650   10.5920   -6.5690 C.3     9  ILE9        0.0001
     23  N        106.6170   -0.9440   -3.8350 N.3    46  SER46      -0.1217
     24  CA       107.4760    0.1990   -4.1490 C.3    46  SER46       0.1889
     25  C        106.6460    1.4790   -4.2860 C.2    46  SER46       0.2288
     26  O        106.8540    2.2740   -5.2010 O.2    46  SER46      -0.2866
     27  CB       108.1980   -0.0570   -5.4740 C.3    46  SER46       0.2089
     28  OG       108.4490   -1.4490   -5.6130 O.3    46  SER46      -0.2183
     29  N        104.9770    5.1840   -2.6400 N.3    48  GLU48      -0.1245
     30  CA       105.5310    6.3100   -1.9010 C.3    48  GLU48       0.1567
     31  C        105.3970    6.0690   -0.3930 C.2    48  GLU48       0.2260
     32  O        106.3000    6.3780    0.3840 O.2    48  GLU48      -0.2867
     33  CB       104.7880    7.5860   -2.2990 C.3    48  GLU48       0.0388
     34  CG       105.1580    7.9530   -3.7380 C.3    48  GLU48       0.1160
     35  CD       104.3670    9.1860   -4.1780 C.2    48  GLU48       0.3649
     36  OE1      103.6560    9.7350   -3.3530 O.co2  48  GLU48      -0.2457
     37  OE2      104.4860    9.5610   -5.3330 O.co2  48  GLU48      -0.2457
     38  N        107.9780    3.5520    0.8360 N.3    51  LEU51      -0.1245
     39  CA       109.3180    4.1270    0.8640 C.3    51  LEU51       0.1561
     40  C        109.5840    4.8790    2.1760 C.2    51  LEU51       0.2260
     41  O        110.7330    5.1650    2.5140 O.2    51  LEU51      -0.2867
     42  CB       109.4670    5.0760   -0.3280 C.3    51  LEU51       0.0270
     43  CG       109.5180    4.2600   -1.6300 C.3    51  LEU51       0.0019
     44  CD1      109.2000    5.1690   -2.8180 C.3    51  LEU51       0.0001
     45  CD2      110.9230    3.6730   -1.8270 C.3    51  LEU51       0.0001
     46  N        111.1920   -2.6490   -2.0620 N.3    57  THR57      -0.1203
     47  CA       111.7090   -3.3860   -3.2040 C.3    57  THR57       0.1994
     48  C        111.5910   -2.5730   -4.4860 C.2    57  THR57       0.2618
     49  O        110.5460   -1.9960   -4.7870 O.2    57  THR57      -0.2717
     50  CB       110.9260   -4.6830   -3.3600 C.3    57  THR57       0.1784
     51  OG1      109.5470   -4.3830   -3.4830 O.3    57  THR57      -0.2211
     52  CG2      111.1550   -5.5680   -2.1350 C.3    57  THR57       0.0376
     53  N        112.6800   -2.5340   -5.2390 N.am   58  VAL58      -0.1965
     54  CA       112.7020   -1.7950   -6.4890 C.3    58  VAL58       0.1727
     55  C        112.0050   -2.5850   -7.5940 C.2    58  VAL58       0.2616
     56  O        111.0710   -2.0990   -8.2310 O.2    58  VAL58      -0.2715
     57  CB       114.1540   -1.5500   -6.8880 C.3    58  VAL58       0.0290
     58  CG1      114.2000   -0.9410   -8.2820 C.3    58  VAL58       0.0023
     59  CG2      114.8010   -0.5880   -5.8910 C.3    58  VAL58       0.0023
     60  N        112.4630   -3.8110   -7.8090 N.am   59  LYS59      -0.1977
     61  CA       111.8730   -4.6610   -8.8320 C.3    59  LYS59       0.1596
     62  C        111.0290   -5.7890   -8.2300 C.2    59  LYS59       0.2287
     63  O        111.3690   -6.3850   -7.2100 O.2    59  LYS59      -0.2864
     64  CB       112.9720   -5.2370   -9.7260 C.3    59  LYS59       0.0298
     65  CG       113.2910   -4.2360  -10.8320 C.3    59  LYS59       0.0038
     66  CD       114.4360   -4.7700  -11.6910 C.3    59  LYS59       0.0206
     67  CE       114.7960   -3.7270  -12.7470 C.3    59  LYS59       0.1093
     68  NZ       115.9710   -4.1990  -13.5320 N.3    59  LYS59      -0.1314
     69  N        115.1220    0.7950   -2.2150 N.3    72  ALA72      -0.1231
     70  CA       115.2500    2.2480   -2.2100 C.3    72  ALA72       0.1694
     71  C        114.7820    2.7970   -0.8630 C.2    72  ALA72       0.2593
     72  O        113.7840    2.3310   -0.3020 O.2    72  ALA72      -0.2718
     73  CB       114.4090    2.8590   -3.3500 C.3    72  ALA72       0.0304
     74  N        115.5270    3.7750   -0.3400 N.am   73  GLY73      -0.1942
     75  CA       115.2000    4.3780    0.9500 C.3    73  GLY73       0.2014
     76  C        115.2350    5.9050    0.8490 C.2    73  GLY73       0.2638
     77  O        116.0410    6.4640    0.1110 O.2    73  GLY73      -0.2714
     78  N        114.3550    6.5780    1.5840 N.am   74  HIS74      -0.1973
     79  CA       114.3080    8.0390    1.5350 C.3    74  HIS74       0.1656
     80  C        115.2510    8.6840    2.5540 C.2    74  HIS74       0.2291
     81  O        115.1730    8.4260    3.7520 O.2    74  HIS74      -0.2864
     82  CB       112.8780    8.5140    1.7980 C.3    74  HIS74       0.0771
     83  CG       112.1050    8.5240    0.5070 C.ar   74  HIS74       0.0820
     84  ND1      112.6500    9.0060   -0.6750 N.ar   74  HIS74      -0.2267
     85  CD2      110.8220    8.1420    0.2000 C.ar   74  HIS74       0.1154
     86  CE1      111.7050    8.9020   -1.6290 C.ar   74  HIS74       0.1986
     87  NE2      110.5720    8.3830   -1.1480 N.ar   74  HIS74      -0.2212
     88  N        126.0550    7.5980   -9.5200 N.3   114  VAL114     -0.1231
     89  CA       125.1950    7.2720  -10.6510 C.3   114  VAL114      0.1692
     90  C        123.9280    8.1330  -10.6430 C.2   114  VAL114      0.2593
     91  O        123.5790    8.7410   -9.6350 O.2   114  VAL114     -0.2718
     92  CB       124.8170    5.7930  -10.5890 C.3   114  VAL114      0.0266
     93  CG1      126.0640    4.9400  -10.8140 C.3   114  VAL114      0.0020
     94  CG2      124.2290    5.4710   -9.2160 C.3   114  VAL114      0.0020
     95  N        123.2480    8.1910  -11.7790 N.am  115  THR115     -0.1940
     96  CA       122.0340    8.9910  -11.8850 C.3   115  THR115      0.2013
     97  C        120.7950    8.1960  -11.4330 C.2   115  THR115      0.2484
     98  O        120.7910    6.9640  -11.4390 O.2   115  THR115     -0.2729
     99  CB       121.8660    9.4460  -13.3370 C.3   115  THR115      0.1807
    100  OG1      122.5530    8.5460  -14.1930 O.3   115  THR115     -0.2208
    101  CG2      122.4570   10.8480  -13.4990 C.3   115  THR115      0.0379
    102  N        119.7540    8.8930  -11.0390 N.am  116  PRO116     -0.2715
    103  CA       118.4760    8.2700  -10.5620 C.3   116  PRO116      0.1536
    104  C        117.7150    7.5440  -11.6770 C.2   116  PRO116      0.2599
    105  O        116.7500    6.8330  -11.4280 O.2   116  PRO116     -0.2715
    106  CB       117.6590    9.4540  -10.0380 C.3   116  PRO116      0.0310
    107  CG       118.2130   10.6560  -10.7260 C.3   116  PRO116      0.0237
    108  CD       119.6850   10.3640  -11.0010 C.3   116  PRO116      0.0939
    109  N        118.1630    7.7370  -12.9050 N.am  117  ASP117     -0.1958
    110  CA       117.5330    7.0810  -14.0510 C.3   117  ASP117      0.1840
    111  C        118.2660    5.7780  -14.4090 C.2   117  ASP117      0.2622
    112  O        117.8640    5.0480  -15.3130 O.2   117  ASP117     -0.2715
    113  CB       117.5480    8.0230  -15.2560 C.3   117  ASP117      0.1450
    114  CG       118.9800    8.1770  -15.7710 C.2   117  ASP117      0.3671
    115  OD1      119.8770    7.6540  -15.1330 O.co2 117  ASP117     -0.2456
    116  OD2      119.1520    8.8170  -16.7950 O.co2 117  ASP117     -0.2456
    117  N        119.3600    5.5170  -13.7000 N.am  118  LYS118     -0.1963
    118  CA       120.1710    4.3220  -13.9530 C.3   118  LYS118      0.1728
    119  C        119.5220    3.0440  -13.4050 C.2   118  LYS118      0.2616
    120  O        119.8650    2.5740  -12.3200 O.2   118  LYS118     -0.2715
    121  CB       121.5520    4.5080  -13.3110 C.3   118  LYS118      0.0311
    122  CG       122.2850    5.6850  -13.9690 C.3   118  LYS118      0.0038
    123  CD       122.8980    5.2650  -15.3120 C.3   118  LYS118      0.0206
    124  CE       123.6260    6.4650  -15.9230 C.3   118  LYS118      0.1093
    125  NZ       124.2320    6.0710  -17.2270 N.3   118  LYS118     -0.1314
    126  N        118.6010    2.4730  -14.1750 N.am  119  TRP119     -0.1974
    127  CA       117.9350    1.2390  -13.7650 C.3   119  TRP119      0.1640
    128  C        118.8600    0.0330  -13.9700 C.2   119  TRP119      0.2290
    129  O        118.5870   -1.0710  -13.4990 O.2   119  TRP119     -0.2864
    130  CB       116.6570    1.0500  -14.5890 C.3   119  TRP119      0.0576
    131  CG       116.9880    1.0360  -16.0490 C.ar  119  TRP119      0.0006
    132  CD1      117.2290    2.1340  -16.7990 C.ar  119  TRP119      0.0946
    133  CD2      117.1030   -0.1060  -16.9480 C.ar  119  TRP119      0.0152
    134  NE1      117.4900    1.7410  -18.0990 N.ar  119  TRP119     -0.2442
    135  CE2      117.4230    0.3700  -18.2420 C.ar  119  TRP119      0.0810
    136  CE3      116.9640   -1.4950  -16.7690 C.ar  119  TRP119      0.0012
    137  CZ2      117.6010   -0.4990  -19.3190 C.ar  119  TRP119      0.0191
    138  CZ3      117.1410   -2.3740  -17.8520 C.ar  119  TRP119      0.0001
    139  CH2      117.4560   -1.8750  -19.1240 C.ar  119  TRP119      0.0015
    140  N        121.7770   -0.5250  -12.6970 N.3   121  VAL121     -0.1231
    141  CA       122.3740   -0.9880  -11.4460 C.3   121  VAL121      0.1692
    142  C        121.4610   -2.0080  -10.7520 C.2   121  VAL121      0.2591
    143  O        121.9190   -2.8480   -9.9780 O.2   121  VAL121     -0.2718
    144  CB       122.5920    0.2100  -10.5150 C.3   121  VAL121      0.0266
    145  CG1      121.2390    0.7810  -10.0940 C.3   121  VAL121      0.0020
    146  CG2      123.3710   -0.2310   -9.2720 C.3   121  VAL121      0.0020
    147  N        120.1650   -1.9140  -11.0300 N.am  122  VAL122     -0.1980
    148  CA       119.1910   -2.8140  -10.4200 C.3   122  VAL122      0.1595
    149  C        118.9170   -4.0430  -11.2980 C.2   122  VAL122      0.2287
    150  O        118.2410   -4.9810  -10.8750 O.2   122  VAL122     -0.2864
    151  CB       117.8860   -2.0430  -10.2190 C.3   122  VAL122      0.0276
    152  CG1      116.9100   -2.8730   -9.3890 C.3   122  VAL122      0.0022
    153  CG2      118.1780   -0.7330   -9.4880 C.3   122  VAL122      0.0022
    154  N        119.6930    2.4300   -2.8150 N.3   133  ILE133     -0.1231
    155  CA       119.6240    3.7460   -3.4240 C.3   133  ILE133      0.1692
    156  C        119.4470    4.8160   -2.3480 C.2   133  ILE133      0.2593
    157  O        118.4290    4.8580   -1.6460 O.2   133  ILE133     -0.2718
    158  CB       118.4430    3.7920   -4.3900 C.3   133  ILE133      0.0266
    159  CG1      118.5940    2.6820   -5.4320 C.3   133  ILE133      0.0019
    160  CG2      118.4150    5.1470   -5.1000 C.3   133  ILE133      0.0020
    161  CD1      117.2920    2.5490   -6.2210 C.3   133  ILE133      0.0001
    162  N        120.4540    5.6770   -2.2350 N.am  134  THR134     -0.1939
    163  CA       120.4340    6.7550   -1.2570 C.3   134  THR134      0.2028
    164  C        120.6960    8.0950   -1.9410 C.2   134  THR134      0.2642
    165  O        121.6250    8.2300   -2.7370 O.2   134  THR134     -0.2714
    166  CB       121.5190    6.5140   -0.2050 C.3   134  THR134      0.1808
    167  OG1      121.3180    5.2470    0.4020 O.3   134  THR134     -0.2208
    168  CG2      121.4420    7.6100    0.8600 C.3   134  THR134      0.0379
    169  N        119.8760    9.0850   -1.6240 N.am  135  CYS135     -0.1967
    170  CA       120.0390   10.4060   -2.2160 C.3   135  CYS135      0.1712
    171  C        121.0840   11.2030   -1.4290 C.2   135  CYS135      0.2296
    172  O        121.1490   11.1200   -0.2010 O.2   135  CYS135     -0.2864
    173  CB       118.6980   11.1320   -2.1830 C.3   135  CYS135      0.0983
    174  SG       117.3590    9.9120   -2.2220 S.3   135  CYS135     -0.0798
    175  N        123.2370   11.3050   -7.6300 N.3   144  ARG144     -0.1245
    176  CA       123.0760   10.5430   -6.4000 C.3   144  ARG144      0.1563
    177  C        123.9620    9.2940   -6.4220 C.2   144  ARG144      0.2260
    178  O        124.1580    8.6780   -7.4650 O.2   144  ARG144     -0.2867
    179  CB       121.6060   10.1460   -6.2670 C.3   144  ARG144      0.0307
    180  CG       120.7670   11.4140   -6.0760 C.3   144  ARG144      0.0489
    181  CD       119.2830   11.0560   -6.0080 C.3   144  ARG144      0.2205
    182  NE       118.4970   12.2770   -5.8700 N.pl3 144  ARG144     -0.0865
    183  CZ       117.1700   12.2570   -5.9470 C.cat 144  ARG144      0.5346
    184  NH1      116.5430   11.1270   -6.1310 N.pl3 144  ARG144      0.1354
    185  NH2      116.4930   13.3670   -5.8430 N.pl3 144  ARG144      0.1354
    186  N        125.0930    5.3590   -5.2970 N.3   146  VAL146     -0.1245
    187  CA       124.4590    4.0810   -5.0080 C.3   146  VAL146      0.1561
    188  C        125.4700    3.1540   -4.3390 C.2   146  VAL146      0.2260
    189  O        126.6120    3.0300   -4.7790 O.2   146  VAL146     -0.2867
    190  CB       123.9450    3.4490   -6.3080 C.3   146  VAL146      0.0252
    191  CG1      123.5420    1.9920   -6.0600 C.3   146  VAL146      0.0019
    192  CG2      122.7190    4.2260   -6.7960 C.3   146  VAL146      0.0019
@<TRIPOS>BOND
     1   137   139   ar
     2   137   135   ar
     3   139   138   ar
     4   135   134   ar
     5   135   133   ar
     6   134   132   ar
     7   138   136   ar
     8   125   124    1
     9   133   136   ar
    10   133   131   ar
    11   132   131   ar
    12   116   114   ar
    13   131   130    1
    14   124   123    1
    15   114   113    1
    16   114   115   ar
    17   112   111    2
    18   123   122    1
    19   113   110    1
    20     1     2    1
    21   130   127    1
    22   111   110    1
    23   111   117   am
    24   100    99    1
    25   126   127    1
    26   126   119   am
    27     2     5    1
    28     2     3    1
    29   110   109    1
    30   128   127    1
    31   128   129    2
    32   122   121    1
    33   118   117    1
    34   118   119    1
    35   118   121    1
    36    68    67    1
    37   101    99    1
    38     5     6    1
    39   119   120    2
    40    99    96    1
    41     3     4    2
    42   109   104   am
    43    67    66    1
    44   140   141    1
    45     6     8   ar
    46     6     7   ar
    47    96    95    1
    48    96    97    1
    49    95    90   am
    50    66    65    1
    51   104   105    2
    52   104   103    1
    53   141   142    1
    54   141   144    1
    55    98    97    2
    56    97   102   am
    57   149   150    2
    58   149   148    1
    59   102   108    1
    60   102   103    1
    61   147   142   am
    62   147   148    1
    63   108   107    1
    64    65    64    1
    65    93    92    1
    66   142   143    2
    67   107   106    1
    68    89    90    1
    69    89    92    1
    70    89    88    1
    71    90    91    2
    72    92    94    1
    73   103   106    1
    74   144   145    1
    75   144   146    1
    76   148   151    1
    77    14    13    1
    78   151   153    1
    79   151   152    1
    80     9    10    1
    81    64    61    1
    82    13    10    1
    83    10    11    1
    84    61    62    1
    85    61    60    1
    86    58    57    1
    87    56    55    2
    88    62    63    2
    89    11    12    2
    90    60    55   am
    91   175   176    1
    92    55    54    1
    93   178   177    2
    94    57    54    1
    95    57    59    1
    96   192   190    1
    97    22    20    1
    98    20    19    1
    99    54    53    1
   100   177   176    1
   101   176   179    1
   102   190   191    1
   103   190   187    1
   104   179   180    1
   105    15    16    1
   106   161   159    1
   107   184   183    1
   108   180   181    1
   109   181   182    1
   110   183   182    2
   111   183   185    1
   112    28    27    1
   113    27    24    1
   114   159   158    1
   115    37    35   ar
   116   186   187    1
   117    16    19    1
   118    16    17    1
   119    53    48   am
   120    19    21    1
   121    26    25    2
   122   160   158    1
   123   187   188    1
   124    49    48    2
   125   189   188    2
   126    48    47    1
   127   158   155    1
   128    25    24    1
   129    35    34    1
   130    35    36   ar
   131    24    23    1
   132    17    18    2
   133    34    33    1
   134    51    50    1
   135   155   154    1
   136   155   156    1
   137    50    47    1
   138    50    52    1
   139    73    70    1
   140    47    46    1
   141    44    43    1
   142   165   164    2
   143    29    30    1
   144   156   162   am
   145   156   157    2
   146    33    30    1
   147   162   163    1
   148   174   173    1
   149   170   173    1
   150   170   169    1
   151   170   171    1
   152    69    70    1
   153    70    71    1
   154   164   169   am
   155   164   163    1
   156    30    31    1
   157    45    43    1
   158    43    42    1
   159    86    87   ar
   160    86    84   ar
   161   171   172    2
   162   163   166    1
   163    87    85   ar
   164    71    74   am
   165    71    72    2
   166    84    83   ar
   167    31    32    2
   168    74    75    1
   169    42    39    1
   170   166   167    1
   171   166   168    1
   172    77    76    2
   173    85    83   ar
   174    83    82    1
   175    38    39    1
   176    76    75    1
   177    76    78   am
   178    39    40    1
   179    79    78    1
   180    79    82    1
   181    79    80    1
   182    40    41    2
   183    80    81    2
