@<TRIPOS>MOLECULE
tmp/2samA00.pdb
 70 64 0 0 0
SMALL
GASTEIGER

@<TRIPOS>ATOM
      1  N        -11.0580   10.3920    2.9880 N.3     8  ARG8       -0.1301
      2  CA       -11.6210    9.5430    1.9450 C.3     8  ARG8        0.1248
      3  C        -10.6610    9.4740    0.7560 C.3     8  ARG8        0.2009
      4  O        -10.2560   10.5830    0.4020 O.3     8  ARG8       -0.2188
      5  CB       -12.9250   10.1350    1.4650 C.3     8  ARG8        0.0254
      6  CG       -14.0860    9.9260    2.3950 C.3     8  ARG8        0.0485
      7  CD       -15.4170   10.3930    1.8430 C.3     8  ARG8        0.2205
      8  NE       -16.3550    9.3290    2.1290 N.pl3   8  ARG8       -0.0865
      9  CZ       -17.6770    9.4250    1.9110 C.cat   8  ARG8        0.5346
     10  NH1      -18.2250   10.5690    1.4790 N.pl3   8  ARG8        0.1354
     11  NH2      -18.4680    8.3630    2.1630 N.pl3   8  ARG8        0.1354
     12  N        -14.3750    7.7110   -5.6490 N.3    23  LEU23      -0.1245
     13  CA       -13.8450    7.1330   -4.4110 C.3    23  LEU23       0.1561
     14  C        -13.2330    5.7750   -4.7490 C.2    23  LEU23       0.2260
     15  O        -13.9160    4.9010   -5.3390 O.2    23  LEU23      -0.2867
     16  CB       -15.0040    6.9810   -3.3930 C.3    23  LEU23       0.0270
     17  CG       -14.7690    6.2940   -2.0350 C.3    23  LEU23       0.0019
     18  CD1      -13.6960    7.0360   -1.3090 C.3    23  LEU23       0.0001
     19  CD2      -16.0140    6.3110   -1.1820 C.3    23  LEU23       0.0001
     20  N        -12.3810    2.2390   -3.7860 N.3    25  ASP25      -0.1239
     21  CA       -12.9990    1.4550   -2.7530 C.3    25  ASP25       0.1674
     22  C        -12.5620    0.0190   -2.7240 C.2    25  ASP25       0.2266
     23  O        -13.1800   -0.7300   -3.4690 O.2    25  ASP25      -0.2867
     24  CB       -14.4910    1.6230   -2.9940 C.3    25  ASP25       0.1410
     25  CG       -15.4660    0.8960   -2.1110 C.2    25  ASP25       0.3668
     26  OD1      -15.1510   -0.1750   -1.6140 O.co2  25  ASP25      -0.2456
     27  OD2      -16.7650    1.3840   -1.9210 O.co2  25  ASP25      -0.2456
     28  N        -13.6060   -2.3730   -1.2160 N.3    27  GLY27      -0.1210
     29  CA       -14.6840   -3.2310   -0.8420 C.3    27  GLY27       0.1956
     30  C        -15.7250   -3.2760   -1.9230 C.2    27  GLY27       0.2611
     31  O        -16.8530   -3.7010   -1.6960 O.2    27  GLY27      -0.2717
     32  N        -15.4590   -2.7820   -3.1170 N.am   28  ALA28      -0.1979
     33  CA       -16.3970   -2.8810   -4.2230 C.3    28  ALA28       0.1597
     34  C        -15.7120   -3.8200   -5.2060 C.2    28  ALA28       0.2287
     35  O        -14.4970   -3.7740   -5.4390 O.2    28  ALA28      -0.2864
     36  CB       -16.5900   -1.4930   -4.8250 C.3    28  ALA28       0.0319
     37  N        -25.5510   -3.3280   -2.2880 N.3    49  GLY49      -0.1225
     38  CA       -24.7210   -2.6440   -1.2900 C.3    49  GLY49       0.1811
     39  C        -25.4750   -2.6640    0.0520 C.2    49  GLY49       0.2280
     40  O        -26.4280   -3.4260    0.2360 O.2    49  GLY49      -0.2866
     41  N        -26.0540    5.7880   -7.9430 N.3    80  THR80      -0.1204
     42  CA       -25.2350    5.5980   -6.7920 C.3    80  THR80       0.1979
     43  C        -25.2430    7.0060   -6.2160 C.2    80  THR80       0.2460
     44  O        -25.3770    7.9900   -6.9540 O.2    80  THR80      -0.2732
     45  CB       -23.8450    5.1210   -7.2580 C.3    80  THR80       0.1783
     46  OG1      -23.0920    4.9390   -6.0970 O.3    80  THR80      -0.2211
     47  CG2      -23.1070    6.0930   -8.1240 C.3    80  THR80       0.0376
     48  N        -25.2100    7.1440   -4.8900 N.am   81  PRO81      -0.2717
     49  CA       -24.9570    8.3990   -4.2100 C.3    81  PRO81       0.1535
     50  C        -23.4970    8.7650   -4.2630 C.2    81  PRO81       0.2598
     51  O        -23.1940    9.9540   -4.0950 O.2    81  PRO81      -0.2715
     52  CB       -25.4680    8.1650   -2.8230 C.3    81  PRO81       0.0310
     53  CG       -25.2310    6.6880   -2.6120 C.3    81  PRO81       0.0237
     54  CD       -25.6660    6.1260   -3.9450 C.3    81  PRO81       0.0939
     55  N        -22.5740    7.7910   -4.4310 N.am   82  ILE82      -0.1978
     56  CA       -21.1580    8.1250   -4.5870 C.3    82  ILE82       0.1596
     57  C        -20.5210    7.3000   -5.7110 C.2    82  ILE82       0.2287
     58  O        -20.7670    6.1130   -5.9110 O.2    82  ILE82      -0.2864
     59  CB       -20.3300    7.8770   -3.3050 C.3    82  ILE82       0.0276
     60  CG1      -20.9410    8.5570   -2.1030 C.3    82  ILE82       0.0022
     61  CG2      -18.9670    8.5470   -3.4680 C.3    82  ILE82       0.0022
     62  CD1      -20.0000    8.5750   -0.9000 C.3    82  ILE82       0.0001
     63  N        -17.8230    5.1750   -7.2490 N.3    84  ILE84      -0.1245
     64  CA       -16.6510    4.4330   -6.8380 C.3    84  ILE84       0.1561
     65  C        -15.9250    3.6540   -7.9420 C.2    84  ILE84       0.2260
     66  O        -16.5500    3.1980   -8.9050 O.2    84  ILE84      -0.2867
     67  CB       -17.0190    3.4360   -5.6920 C.3    84  ILE84       0.0252
     68  CG1      -17.9380    2.2940   -6.1200 C.3    84  ILE84       0.0019
     69  CG2      -17.7260    4.2660   -4.6060 C.3    84  ILE84       0.0019
     70  CD1      -19.4140    2.6850   -6.3110 C.3    84  ILE84       0.0001
@<TRIPOS>BOND
     1    66    65    2
     2    47    45    1
     3    41    42    1
     4    65    64    1
     5    45    42    1
     6    45    46    1
     7    63    64    1
     8    44    43    2
     9    64    67    1
    10    42    43    1
    11    70    68    1
    12    43    48   am
    13    68    67    1
    14    58    57    2
    15    57    56    1
    16    67    69    1
    17    12    13    1
    18    35    34    2
    19    15    14    2
    20    34    33    1
    21    48    49    1
    22    48    54    1
    23    36    33    1
    24    14    13    1
    25    56    55    1
    26    56    59    1
    27    55    50   am
    28    13    16    1
    29    50    49    1
    30    50    51    2
    31    33    32    1
    32    49    52    1
    33    54    53    1
    34    20    21    1
    35    23    22    2
    36    61    59    1
    37    16    17    1
    38    59    60    1
    39    32    30   am
    40    24    21    1
    41    24    25    1
    42    52    53    1
    43    21    22    1
    44    37    38    1
    45    25    27   ar
    46    25    26   ar
    47    60    62    1
    48    17    18    1
    49    17    19    1
    50    30    31    2
    51    30    29    1
    52    38    39    1
    53    28    29    1
    54    39    40    2
    55     4     3    1
    56     3     2    1
    57     5     2    1
    58     5     6    1
    59    10     9    1
    60     7     8    1
    61     7     6    1
    62     9     8    2
    63     9    11    1
    64     2     1    1
