@<TRIPOS>MOLECULE
tmp/2sarA00.pdb
 124 121 0 0 0
SMALL
GASTEIGER

@<TRIPOS>ATOM
      1  N         64.6910    2.8580   22.0490 N.3    32  GLN32      -0.1245
      2  CA        63.3370    3.2910   21.7060 C.3    32  GLN32       0.1566
      3  C         62.8150    2.9050   20.2800 C.2    32  GLN32       0.2260
      4  O         61.6630    3.1680   19.8620 O.2    32  GLN32      -0.2867
      5  CB        63.0890    4.8360   21.5240 C.3    32  GLN32       0.0367
      6  CG        63.0930    5.7260   22.7200 C.3    32  GLN32       0.0905
      7  CD        62.1000    6.8250   23.0910 C.2    32  GLN32       0.2608
      8  OE1       62.0440    7.6190   24.0750 O.2    32  GLN32      -0.2717
      9  NE2       61.0880    6.9760   22.2160 N.am   32  GLN32      -0.0878
     10  N         59.2560    0.8060   19.4320 N.3    35  VAL35      -0.1231
     11  CA        58.1450    0.9420   20.3810 C.3    35  VAL35       0.1692
     12  C         56.8880    1.2790   19.5130 C.2    35  VAL35       0.2592
     13  O         56.9300    1.8600   18.4220 O.2    35  VAL35      -0.2718
     14  CB        58.3630    2.0380   21.3990 C.3    35  VAL35       0.0266
     15  CG1       59.4420    1.5890   22.3640 C.3    35  VAL35       0.0020
     16  CG2       58.7600    3.4320   20.9310 C.3    35  VAL35       0.0020
     17  N         55.7870    1.0170   20.2140 N.am   36  VAL36      -0.1966
     18  CA        54.4330    1.3250   19.6650 C.3    36  VAL36       0.1727
     19  C         54.2500    2.8020   19.5340 C.2    36  VAL36       0.2616
     20  O         54.5980    3.6200   20.3800 O.2    36  VAL36      -0.2715
     21  CB        53.2540    0.7280   20.5300 C.3    36  VAL36       0.0290
     22  CG1       51.8640    0.9660   19.9660 C.3    36  VAL36       0.0023
     23  CG2       53.4300   -0.7570   20.5230 C.3    36  VAL36       0.0023
     24  N         53.6100    3.1890   18.4260 N.am   37  PHE37      -0.1960
     25  CA        53.1830    4.5390   18.1530 C.3    37  PHE37       0.1771
     26  C         51.6690    4.4350   18.4290 C.2    37  PHE37       0.2619
     27  O         51.0700    3.6000   17.7400 O.2    37  PHE37      -0.2715
     28  CB        53.4860    4.9860   16.7130 C.3    37  PHE37       0.0574
     29  CG        52.9890    6.3760   16.4410 C.ar   37  PHE37      -0.0200
     30  CD1       53.5950    7.4860   17.0210 C.ar   37  PHE37      -0.0042
     31  CD2       51.8940    6.5360   15.5670 C.ar   37  PHE37      -0.0042
     32  CE1       53.0980    8.7750   16.7660 C.ar   37  PHE37      -0.0003
     33  CE2       51.4300    7.8080   15.2880 C.ar   37  PHE37      -0.0003
     34  CZ        52.0270    8.9190   15.9100 C.ar   37  PHE37      -0.0000
     35  N         51.1570    5.2790   19.3010 N.am   38  GLN38      -0.1963
     36  CA        49.7240    5.1920   19.6110 C.3    38  GLN38       0.1733
     37  C         48.7130    5.8000   18.6480 C.2    38  GLN38       0.2616
     38  O         47.5330    5.3500   18.7450 O.2    38  GLN38      -0.2715
     39  CB        49.4870    5.9260   20.9420 C.3    38  GLN38       0.0408
     40  CG        49.9960    5.0750   22.0820 C.3    38  GLN38       0.0908
     41  CD        49.5520    5.9120   23.2960 C.2    38  GLN38       0.2608
     42  OE1       48.3500    6.2680   23.4670 O.2    38  GLN38      -0.2717
     43  NE2       50.5080    6.2720   24.1200 N.am   38  GLN38      -0.0878
     44  N         49.1580    6.7130   17.8180 N.am   39  ASN39      -0.1958
     45  CA        48.2670    7.3900   16.8500 C.3    39  ASN39       0.1819
     46  C         47.1620    8.1220   17.6560 C.2    39  ASN39       0.2621
     47  O         45.9810    8.1700   17.2470 O.2    39  ASN39      -0.2715
     48  CB        47.6480    6.3710   15.8590 C.3    39  ASN39       0.1195
     49  CG        46.9280    7.0800   14.7230 C.2    39  ASN39       0.2630
     50  OD1       47.3320    8.1900   14.3770 O.2    39  ASN39      -0.2716
     51  ND2       45.8320    6.5060   14.1930 N.am   39  ASN39      -0.0877
     52  N         47.5210    8.6400   18.7890 N.am   40  ARG40      -0.1963
     53  CA        46.5890    9.3150   19.7280 C.3    40  ARG40       0.1729
     54  C         45.8250   10.4980   19.1490 C.2    40  ARG40       0.2616
     55  O         44.6090   10.6830   19.4920 O.2    40  ARG40      -0.2715
     56  CB        47.3940    9.5940   21.0170 C.3    40  ARG40       0.0348
     57  CG        46.6710   10.4420   22.0490 C.3    40  ARG40       0.0492
     58  CD        47.3000   10.3110   23.4190 C.3    40  ARG40       0.2205
     59  NE        46.6450    9.3440   24.2600 N.pl3  40  ARG40      -0.0865
     60  CZ        45.8610    8.7780   25.1550 C.cat  40  ARG40       0.5346
     61  NH1       44.6400    9.1570   25.5830 N.pl3  40  ARG40       0.1354
     62  NH2       46.3840    7.6590   25.7460 N.pl3  40  ARG40       0.1354
     63  N         46.4900   11.2120   18.2480 N.am   41  GLU41      -0.1977
     64  CA        45.8470   12.3500   17.5980 C.3    41  GLU41       0.1602
     65  C         44.9990   12.0280   16.3770 C.2    41  GLU41       0.2287
     66  O         44.4330   12.9550   15.7280 O.2    41  GLU41      -0.2864
     67  CB        46.8980   13.4060   17.1960 C.3    41  GLU41       0.0415
     68  CG        47.5900   14.0080   18.4220 C.3    41  GLU41       0.1163
     69  CD        48.6170   13.0240   18.9590 C.2    41  GLU41       0.3649
     70  OE1       49.3330   12.2400   18.3040 O.co2  41  GLU41      -0.2457
     71  OE2       48.5910   13.1060   20.2160 O.co2  41  GLU41      -0.2457
     72  N         57.2850    2.9720   16.0020 N.3    54  GLU54      -0.1245
     73  CA        58.0920    4.1510   15.5830 C.3    54  GLU54       0.1567
     74  C         59.6250    3.8110   15.5490 C.2    54  GLU54       0.2260
     75  O         60.1160    3.0610   16.4080 O.2    54  GLU54      -0.2867
     76  CB        57.8280    5.2210   16.5640 C.3    54  GLU54       0.0388
     77  CG        58.2990    6.4810   17.1840 C.3    54  GLU54       0.1160
     78  CD        59.6600    6.3440   17.8480 C.2    54  GLU54       0.3649
     79  OE1       60.7190    6.4640   17.2050 O.co2  54  GLU54      -0.2457
     80  OE2       59.5170    6.0250   19.0300 O.co2  54  GLU54      -0.2457
     81  N         67.4800   12.8290   19.3520 N.3    65  ARG65      -0.1245
     82  CA        66.9560   11.9940   18.2410 C.3    65  ARG65       0.1563
     83  C         66.2670   12.8330   17.1520 C.2    65  ARG65       0.2260
     84  O         65.8130   12.3920   16.0780 O.2    65  ARG65      -0.2867
     85  CB        66.0270   10.9730   18.8390 C.3    65  ARG65       0.0307
     86  CG        66.4630    9.7590   19.5550 C.3    65  ARG65       0.0489
     87  CD        65.5100    8.6050   19.5820 C.3    65  ARG65       0.2205
     88  NE        64.1960    8.8350   20.1280 N.pl3  65  ARG65      -0.0865
     89  CZ        63.1500    8.4730   19.3820 C.cat  65  ARG65       0.5346
     90  NH1       63.0330    7.8510   18.2180 N.pl3  65  ARG65       0.1354
     91  NH2       62.1080    8.8550   20.0540 N.pl3  65  ARG65       0.1354
     92  N         61.1230   10.6440   11.8270 N.3    69  ARG69      -0.1245
     93  CA        60.7350    9.2840   12.2350 C.3    69  ARG69       0.1563
     94  C         60.0690    8.5850   11.0550 C.2    69  ARG69       0.2260
     95  O         59.5400    9.2040   10.1080 O.2    69  ARG69      -0.2867
     96  CB        59.6330    9.2240   13.3620 C.3    69  ARG69       0.0307
     97  CG        59.9300   10.1620   14.5340 C.3    69  ARG69       0.0489
     98  CD        60.9100    9.4190   15.4170 C.3    69  ARG69       0.2205
     99  NE        61.1910   10.1430   16.6930 N.pl3  69  ARG69      -0.0865
    100  CZ        62.0980   11.1400   16.8300 C.cat  69  ARG69       0.5346
    101  NH1       62.9040   11.5640   15.8570 N.pl3  69  ARG69       0.1354
    102  NH2       62.1830   11.7790   18.0000 N.pl3  69  ARG69       0.1354
    103  N         58.0530   15.7440   13.9340 N.3    85  HIS85      -0.1226
    104  CA        57.8050   14.9970   15.1470 C.3    85  HIS85       0.1752
    105  C         56.3210   14.6540   15.2880 C.2    85  HIS85       0.2592
    106  O         55.7050   15.1010   16.2740 O.2    85  HIS85      -0.2718
    107  CB        58.3610   15.8790   16.3190 C.3    85  HIS85       0.0759
    108  CG        58.3330   15.0870   17.5870 C.ar   85  HIS85       0.0818
    109  ND1       57.2570   15.0750   18.4790 N.ar   85  HIS85      -0.2268
    110  CD2       59.2810   14.2760   18.1410 C.ar   85  HIS85       0.1154
    111  CE1       57.5600   14.2840   19.5110 C.ar   85  HIS85       0.1986
    112  NE2       58.7840   13.8190   19.3400 N.ar   85  HIS85      -0.2212
    113  N         55.8180   13.8790   14.3130 N.am   86  TYR86      -0.2029
    114  CA        54.4500   13.3620   14.2680 C.3    86  TYR86       0.1325
    115  C         53.4020   14.4110   13.9370 C.3    86  TYR86       0.2039
    116  O         52.2440   13.9970   14.1620 O.3    86  TYR86      -0.2185
    117  CB        54.0650   12.7120   15.6150 C.3    86  TYR86       0.0507
    118  CG        55.1600   11.8880   16.2280 C.ar   86  TYR86      -0.0202
    119  CD1       55.5960   10.7830   15.4690 C.ar   86  TYR86      -0.0009
    120  CD2       55.7290   12.1420   17.4970 C.ar   86  TYR86      -0.0009
    121  CE1       56.5770    9.9280   15.9950 C.ar   86  TYR86       0.0417
    122  CE2       56.7460   11.3190   17.9690 C.ar   86  TYR86       0.0417
    123  CZ        57.2020   10.2440   17.2090 C.ar   86  TYR86       0.1957
    124  OH        58.1540    9.3460   17.6000 O.3    86  TYR86      -0.2866
@<TRIPOS>BOND
     1    95    94    2
     2    94    93    1
     3    92    93    1
     4    93    96    1
     5    96    97    1
     6   103   104    1
     7   115   116    1
     8   115   114    1
     9    51    49   am
    10   114   113    1
    11   114   117    1
    12   113   105   am
    13    50    49    2
    14    97    98    1
    15    49    48    1
    16   104   105    1
    17   104   107    1
    18   105   106    2
    19    33    31   ar
    20    33    34   ar
    21    98    99    1
    22   119   121   ar
    23   119   118   ar
    24    74    73    1
    25    74    75    2
    26    31    29   ar
    27    73    72    1
    28    73    76    1
    29   117   118    1
    30    66    65    2
    31   101   100    1
    32    48    45    1
    33    34    32   ar
    34   121   123   ar
    35    84    83    2
    36   118   120   ar
    37   107   108    1
    38    65    64    1
    39    29    28    1
    40    29    30   ar
    41    76    77    1
    42    99   100    2
    43    28    25    1
    44    32    30   ar
    45   100   102    1
    46    45    46    1
    47    45    44    1
    48    83    82    1
    49    77    78    1
    50    67    64    1
    51    67    68    1
    52    79    78   ar
    53   123   124    1
    54   123   122   ar
    55    47    46    2
    56   120   122   ar
    57   108   110   ar
    58   108   109   ar
    59    64    63    1
    60    46    52   am
    61    27    26    2
    62    44    37   am
    63    78    80   ar
    64   110   112   ar
    65    25    24    1
    66    25    26    1
    67    90    89    1
    68    82    85    1
    69    82    81    1
    70    63    54   am
    71    70    69   ar
    72    13    12    2
    73    68    69    1
    74    24    19   am
    75    26    35   am
    76   109   111   ar
    77    37    38    2
    78    37    36    1
    79    52    53    1
    80    85    86    1
    81    69    71   ar
    82    54    55    2
    83    54    53    1
    84    35    36    1
    85   112   111   ar
    86    89    91    1
    87    89    88    2
    88    10    11    1
    89    12    17   am
    90    12    11    1
    91    19    18    1
    92    19    20    2
    93    86    87    1
    94    87    88    1
    95    36    39    1
    96    18    17    1
    97    18    21    1
    98    53    56    1
    99     4     3    2
   100    22    21    1
   101     3     2    1
   102    11    14    1
   103    23    21    1
   104    16    14    1
   105    39    40    1
   106    56    57    1
   107    14    15    1
   108     5     2    1
   109     5     6    1
   110     2     1    1
   111    57    58    1
   112    40    41    1
   113     9     7   am
   114     6     7    1
   115     7     8    2
   116    41    42    2
   117    41    43   am
   118    58    59    1
   119    59    60    2
   120    60    61    1
   121    60    62    1
