@<TRIPOS>MOLECULE
tmp/2sebB00.pdb
 199 195 0 0 0
SMALL
GASTEIGER

@<TRIPOS>ATOM
      1  N          2.1040  109.0080   44.8550 N.3    10  VAL10      -0.1245
      2  CA         2.7630  107.7190   45.0130 C.3    10  VAL10       0.1561
      3  C          3.1130  107.1740   43.6440 C.2    10  VAL10       0.2260
      4  O          2.2700  107.1250   42.7510 O.2    10  VAL10      -0.2867
      5  CB         1.8740  106.6840   45.7180 C.3    10  VAL10       0.0252
      6  CG1        2.6650  105.4140   45.9860 C.3    10  VAL10       0.0019
      7  CG2        1.3350  107.2400   47.0040 C.3    10  VAL10       0.0019
      8  N          4.9450  103.8840   41.7880 N.3    12  HIS12      -0.1241
      9  CA         5.5030  102.5510   41.7890 C.3    12  HIS12       0.1621
     10  C          6.2330  102.3810   40.4790 C.2    12  HIS12       0.2264
     11  O          5.6050  102.2220   39.4340 O.2    12  HIS12      -0.2867
     12  CB         4.3980  101.5090   41.9480 C.3    12  HIS12       0.0745
     13  CG         3.4480  101.7610   43.1410 C.ar   12  HIS12       0.0817
     14  ND1        2.3530  102.5930   43.0600 N.ar   12  HIS12      -0.2268
     15  CD2        3.4650  101.2730   44.4000 C.ar   12  HIS12       0.1154
     16  CE1        1.7280  102.6020   44.2250 C.ar   12  HIS12       0.1986
     17  NE2        2.3820  101.8080   45.0540 N.ar   12  HIS12      -0.2212
     18  N         12.8310   97.8480   41.0830 N.3    25  PHE25      -0.1241
     19  CA        11.5470   98.3650   41.5380 C.3    25  PHE25       0.1605
     20  C         11.6710   99.3810   42.6550 C.2    25  PHE25       0.2264
     21  O         12.4340   99.1930   43.6000 O.2    25  PHE25      -0.2867
     22  CB        10.6590   97.1880   41.9670 C.3    25  PHE25       0.0534
     23  CG         9.4610   97.5910   42.7800 C.ar   25  PHE25      -0.0203
     24  CD1        8.3470   98.1500   42.1720 C.ar   25  PHE25      -0.0042
     25  CD2        9.4490   97.4080   44.1510 C.ar   25  PHE25      -0.0042
     26  CE1        7.2450   98.5220   42.9210 C.ar   25  PHE25      -0.0003
     27  CE2        8.3510   97.7780   44.9060 C.ar   25  PHE25      -0.0003
     28  CZ         7.2470   98.3360   44.2900 C.ar   25  PHE25      -0.0000
     29  N          7.0220  107.6470   47.7730 N.3    29  TYR29      -0.1241
     30  CA         5.9530  108.4750   48.3030 C.3    29  TYR29       0.1605
     31  C          6.4210  109.9130   48.2950 C.2    29  TYR29       0.2264
     32  O          7.5510  110.2170   48.6800 O.2    29  TYR29      -0.2867
     33  CB         5.5940  108.0140   49.7130 C.3    29  TYR29       0.0534
     34  CG         5.0990  106.6000   49.7070 C.ar   29  TYR29      -0.0201
     35  CD1        5.9710  105.5390   49.4430 C.ar   29  TYR29      -0.0009
     36  CD2        3.7460  106.3170   49.8710 C.ar   29  TYR29      -0.0009
     37  CE1        5.5110  104.2450   49.3240 C.ar   29  TYR29       0.0417
     38  CE2        3.2710  105.0210   49.7560 C.ar   29  TYR29       0.0417
     39  CZ         4.1580  103.9910   49.4770 C.ar   29  TYR29       0.1957
     40  OH         3.6810  102.7210   49.2840 O.3    29  TYR29      -0.2866
     41  N         12.4940   99.9240   53.3140 N.3    46  TYR46      -0.1241
     42  CA        12.0810  101.3090   53.1620 C.3    46  TYR46       0.1605
     43  C         13.1450  102.2160   53.7630 C.2    46  TYR46       0.2264
     44  O         13.6630  101.9520   54.8520 O.2    46  TYR46      -0.2867
     45  CB        10.7280  101.5630   53.8310 C.3    46  TYR46       0.0534
     46  CG         9.5470  101.1210   53.0060 C.ar   46  TYR46      -0.0201
     47  CD1        9.0160  101.9520   52.0160 C.ar   46  TYR46      -0.0009
     48  CD2        8.9520   99.8770   53.2140 C.ar   46  TYR46      -0.0009
     49  CE1        7.9180  101.5530   51.2520 C.ar   46  TYR46       0.0417
     50  CE2        7.8560   99.4670   52.4600 C.ar   46  TYR46       0.0417
     51  CZ         7.3420  100.3110   51.4830 C.ar   46  TYR46       0.1957
     52  OH         6.2550   99.9170   50.7470 O.3    46  TYR46      -0.2866
     53  N          9.0040  108.0340   60.2590 N.3    55  PRO55      -0.2102
     54  CA         8.0200  107.1890   60.9430 C.3    55  PRO55       0.1504
     55  C          7.5620  106.0450   60.0440 C.2    55  PRO55       0.2575
     56  O          7.5330  104.8890   60.4610 O.2    55  PRO55      -0.2718
     57  CB         6.8810  108.1640   61.2270 C.3    55  PRO55       0.0282
     58  CG         7.5990  109.4670   61.4080 C.3    55  PRO55       0.0208
     59  CD         8.5720  109.4450   60.2650 C.3    55  PRO55       0.0893
     60  N          7.2860  106.3710   58.7850 N.am   56  ASP56      -0.1974
     61  CA         6.8370  105.3850   57.8060 C.3    56  ASP56       0.1708
     62  C          7.9210  104.3510   57.5260 C.2    56  ASP56       0.2293
     63  O          7.6440  103.1550   57.4660 O.2    56  ASP56      -0.2864
     64  CB         6.4670  106.0650   56.4880 C.3    56  ASP56       0.1436
     65  CG         5.6220  107.3020   56.6790 C.2    56  ASP56       0.3671
     66  OD1        4.6600  107.2770   57.4750 O.co2  56  ASP56      -0.2456
     67  OD2        5.9270  108.3070   56.0100 O.co2  56  ASP56      -0.2456
     68  N          8.1810  102.0850   60.5290 N.3    59  TYR59      -0.1227
     69  CA         6.9230  101.3470   60.6840 C.3    59  TYR59       0.1736
     70  C          6.7360  100.2720   59.6170 C.2    59  TYR59       0.2595
     71  O          6.4180   99.1260   59.9310 O.2    59  TYR59      -0.2718
     72  CB         5.7320  102.3260   60.6540 C.3    59  TYR59       0.0548
     73  CG         4.3510  101.6810   60.6840 C.ar   59  TYR59      -0.0200
     74  CD1        3.9720  100.8250   61.7140 C.ar   59  TYR59      -0.0009
     75  CD2        3.4160  101.9370   59.6820 C.ar   59  TYR59      -0.0009
     76  CE1        2.7100  100.2480   61.7450 C.ar   59  TYR59       0.0417
     77  CE2        2.1540  101.3670   59.7050 C.ar   59  TYR59       0.0417
     78  CZ         1.8060  100.5240   60.7390 C.ar   59  TYR59       0.1957
     79  OH         0.5500   99.9560   60.7670 O.3    59  TYR59      -0.2866
     80  N          6.8960  100.6530   58.3560 N.am   60  TRP60      -0.1976
     81  CA         6.7270   99.7180   57.2500 C.3    60  TRP60       0.1640
     82  C          7.7680   98.6070   57.2940 C.2    60  TRP60       0.2290
     83  O          7.4640   97.4550   56.9870 O.2    60  TRP60      -0.2864
     84  CB         6.7530  100.4630   55.9060 C.3    60  TRP60       0.0576
     85  CG         5.6070  101.4340   55.7570 C.ar   60  TRP60       0.0006
     86  CD1        4.4520  101.4440   56.4860 C.ar   60  TRP60       0.0946
     87  CD2        5.5180  102.5520   54.8650 C.ar   60  TRP60       0.0152
     88  NE1        3.6580  102.4930   56.1120 N.ar   60  TRP60      -0.2442
     89  CE2        4.2820  103.1870   55.1100 C.ar   60  TRP60       0.0810
     90  CE3        6.3630  103.0730   53.8720 C.ar   60  TRP60       0.0012
     91  CZ2        3.8690  104.3250   54.4100 C.ar   60  TRP60       0.0191
     92  CZ3        5.9500  104.2060   53.1760 C.ar   60  TRP60       0.0001
     93  CH2        4.7100  104.8150   53.4450 C.ar   60  TRP60       0.0015
     94  N          7.1490   95.3570   59.1840 N.3    63  GLN63      -0.1245
     95  CA         6.0580   94.5570   58.6580 C.3    63  GLN63       0.1566
     96  C          6.5700   93.5090   57.6860 C.2    63  GLN63       0.2260
     97  O          6.7750   93.7710   56.4980 O.2    63  GLN63      -0.2867
     98  CB         5.0010   95.4610   58.0230 C.3    63  GLN63       0.0367
     99  CG         4.2060   96.2350   59.0660 C.3    63  GLN63       0.0905
    100  CD         3.5210   97.4650   58.5130 C.2    63  GLN63       0.2608
    101  OE1        2.6700   97.3780   57.6290 O.2    63  GLN63      -0.2717
    102  NE2        3.8810   98.6240   59.0470 N.am   63  GLN63      -0.0878
    103  N          4.4640   93.1520   54.5160 N.3    66  LEU66      -0.1245
    104  CA         4.5650   94.2660   53.5800 C.3    66  LEU66       0.1561
    105  C          5.8900   94.1770   52.8470 C.2    66  LEU66       0.2260
    106  O          5.9380   94.2620   51.6180 O.2    66  LEU66      -0.2867
    107  CB         4.4430   95.5940   54.3320 C.3    66  LEU66       0.0270
    108  CG         4.6350   96.9290   53.6010 C.3    66  LEU66       0.0019
    109  CD1        3.7560   97.0310   52.3650 C.3    66  LEU66       0.0001
    110  CD2        4.3140   98.0510   54.5670 C.3    66  LEU66       0.0001
    111  N          5.8780   91.3750   50.3150 N.3    69  GLN69      -0.1231
    112  CA         5.1620   91.7320   49.0970 C.3    69  GLN69       0.1698
    113  C          6.0020   92.6440   48.2100 C.2    69  GLN69       0.2592
    114  O          6.0740   92.4350   46.9900 O.2    69  GLN69      -0.2718
    115  CB         3.8270   92.3950   49.4370 C.3    69  GLN69       0.0381
    116  CG         2.8830   91.5130   50.2360 C.3    69  GLN69       0.0905
    117  CD         1.5700   92.2010   50.5540 C.2    69  GLN69       0.2608
    118  OE1        1.3580   93.3550   50.1820 O.2    69  GLN69      -0.2717
    119  NE2        0.5510   91.6810   51.2300 N.am   69  GLN69      -0.0878
    120  N          6.6470   93.6470   48.7990 N.am   70  LYS70      -0.1980
    121  CA         7.4770   94.5840   48.0370 C.3    70  LYS70       0.1596
    122  C          8.7270   93.9090   47.4880 C.2    70  LYS70       0.2287
    123  O          9.1610   94.2090   46.3760 O.2    70  LYS70      -0.2864
    124  CB         7.8600   95.7950   48.8930 C.3    70  LYS70       0.0298
    125  CG         6.6750   96.6200   49.3680 C.3    70  LYS70       0.0038
    126  CD         5.9310   97.2700   48.2050 C.3    70  LYS70       0.0206
    127  CE         4.6840   97.9710   48.7090 C.3    70  LYS70       0.1093
    128  NZ         4.0040   98.7810   47.6690 N.3    70  LYS70      -0.1314
    129  N          7.7700   92.1310   44.5610 N.3    73  ALA73      -0.1245
    130  CA         7.3430   93.0430   43.4950 C.3    73  ALA73       0.1562
    131  C          8.1070   92.9980   42.1810 C.2    73  ALA73       0.2260
    132  O          7.4920   93.1010   41.1200 O.2    73  ALA73      -0.2867
    133  CB         7.2810   94.4710   44.0140 C.3    73  ALA73       0.0290
    134  N          6.4820   89.6460   40.7410 N.3    76  THR76      -0.1203
    135  CA         5.0230   89.6380   40.7070 C.3    76  THR76       0.1994
    136  C          4.3620   90.8870   40.1390 C.2    76  THR76       0.2617
    137  O          3.2440   90.8200   39.6240 O.2    76  THR76      -0.2717
    138  CB         4.4380   89.3740   42.1120 C.3    76  THR76       0.1784
    139  OG1        4.8470   90.4210   42.9990 O.3    76  THR76      -0.2211
    140  CG2        4.9450   88.0490   42.6660 C.3    76  THR76       0.0376
    141  N          5.0430   92.0240   40.2460 N.am   77  TYR77      -0.1975
    142  CA         4.5030   93.2820   39.7590 C.3    77  TYR77       0.1639
    143  C          5.1670   93.6870   38.4520 C.2    77  TYR77       0.2290
    144  O          4.5320   93.6810   37.4010 O.2    77  TYR77      -0.2864
    145  CB         4.6800   94.3690   40.8300 C.3    77  TYR77       0.0560
    146  CG         4.3150   95.7720   40.3980 C.ar   77  TYR77      -0.0198
    147  CD1        3.0390   96.0710   39.9140 C.ar   77  TYR77      -0.0009
    148  CD2        5.2410   96.8080   40.5010 C.ar   77  TYR77      -0.0009
    149  CE1        2.6960   97.3700   39.5500 C.ar   77  TYR77       0.0417
    150  CE2        4.9120   98.1030   40.1380 C.ar   77  TYR77       0.0417
    151  CZ         3.6420   98.3810   39.6670 C.ar   77  TYR77       0.1957
    152  OH         3.3320   99.6660   39.3160 O.3    77  TYR77      -0.2866
    153  N          5.7010   90.7660   35.7020 N.3    80  HIS80      -0.1226
    154  CA         4.3560   90.3380   35.3160 C.3    80  HIS80       0.1752
    155  C          3.7250   91.3620   34.3790 C.2    80  HIS80       0.2596
    156  O          3.2860   91.0200   33.2770 O.2    80  HIS80      -0.2718
    157  CB         3.4590   90.1600   36.5470 C.3    80  HIS80       0.0759
    158  CG         2.0190   89.8760   36.2150 C.ar   80  HIS80       0.0818
    159  ND1        1.5320   88.5990   36.0690 N.ar   80  HIS80      -0.2268
    160  CD2        0.9800   90.7100   35.9890 C.ar   80  HIS80       0.1154
    161  CE1        0.2440   88.6520   35.7620 C.ar   80  HIS80       0.1986
    162  NE2       -0.1130   89.9230   35.7100 N.ar   80  HIS80      -0.2212
    163  N          3.6480   92.6130   34.8280 N.am   81  ASN81      -0.1974
    164  CA         3.0540   93.6720   34.0100 C.3    81  ASN81       0.1688
    165  C          3.7900   93.8760   32.6930 C.2    81  ASN81       0.2292
    166  O          3.1740   94.2040   31.6820 O.2    81  ASN81      -0.2864
    167  CB         2.9740   94.9860   34.7890 C.3    81  ASN81       0.1181
    168  CG         1.9640   94.9290   35.9200 C.2    81  ASN81       0.2629
    169  OD1        1.2370   93.9470   36.0720 O.2    81  ASN81      -0.2716
    170  ND2        1.9110   95.9820   36.7200 N.am   81  ASN81      -0.0877
    171  N          2.3550   91.3460   30.4280 N.3    84  VAL84      -0.1231
    172  CA         1.0020   91.7060   29.9990 C.3    84  VAL84       0.1692
    173  C          1.0100   92.8250   28.9450 C.2    84  VAL84       0.2592
    174  O          0.2450   92.7800   27.9800 O.2    84  VAL84      -0.2718
    175  CB         0.1190   92.1370   31.2120 C.3    84  VAL84       0.0266
    176  CG1       -1.2910   92.4990   30.7600 C.3    84  VAL84       0.0020
    177  CG2        0.0570   91.0180   32.2450 C.3    84  VAL84       0.0020
    178  N          1.8980   93.8020   29.1160 N.am   85  GLY85      -0.1957
    179  CA         1.9830   94.9090   28.1760 C.3    85  GLY85       0.1869
    180  C          2.9000   94.6630   26.9880 C.2    85  GLY85       0.2309
    181  O          2.6790   95.1940   25.8990 O.2    85  GLY85      -0.2863
    182  N          1.8600   95.1850   23.2080 N.3    88  PHE88      -0.1227
    183  CA         1.3070   96.4550   22.7360 C.3    88  PHE88       0.1736
    184  C          2.0620   97.7060   23.1840 C.2    88  PHE88       0.2596
    185  O          1.7050   98.8210   22.8030 O.2    88  PHE88      -0.2718
    186  CB        -0.1980   96.5680   23.0500 C.3    88  PHE88       0.0547
    187  CG        -0.5450   96.4380   24.5110 C.ar   88  PHE88      -0.0202
    188  CD1       -0.5100   97.5420   25.3570 C.ar   88  PHE88      -0.0042
    189  CD2       -0.9710   95.2210   25.0250 C.ar   88  PHE88      -0.0042
    190  CE1       -0.8970   97.4370   26.6820 C.ar   88  PHE88      -0.0003
    191  CE2       -1.3580   95.1060   26.3510 C.ar   88  PHE88      -0.0003
    192  CZ        -1.3230   96.2170   27.1830 C.ar   88  PHE88      -0.0000
    193  N          3.1050   97.5230   23.9870 N.am   89  THR89      -0.1953
    194  CA         3.9070   98.6390   24.4640 C.3    89  THR89       0.1897
    195  C          5.3600   98.4750   24.0180 C.2    89  THR89       0.2313
    196  O          5.8260   99.1910   23.1390 O.2    89  THR89      -0.2863
    197  CB         3.8370   98.7620   26.0090 C.3    89  THR89       0.1794
    198  OG1        4.1960   97.5100   26.6150 O.3    89  THR89      -0.2208
    199  CG2        2.4400   99.1520   26.4570 C.3    89  THR89       0.0378
@<TRIPOS>BOND
     1   183   186    1
     2   183   184    1
     3   183   182    1
     4   185   184    2
     5   186   187    1
     6   196   195    2
     7   184   193   am
     8   193   194    1
     9   195   194    1
    10   194   197    1
    11   187   189   ar
    12   187   188   ar
    13   189   191   ar
    14   188   190   ar
    15   181   180    2
    16   197   199    1
    17   197   198    1
    18   191   192   ar
    19   190   192   ar
    20   180   179    1
    21   174   173    2
    22   179   178    1
    23   173   178   am
    24   173   172    1
    25   172   171    1
    26   172   175    1
    27   176   175    1
    28   175   177    1
    29   166   165    2
    30   165   164    1
    31   156   155    2
    32   164   167    1
    33   164   163    1
    34   155   163   am
    35   155   154    1
    36   167   168    1
    37   154   153    1
    38   154   157    1
    39   162   161   ar
    40   162   160   ar
    41   161   159   ar
    42   168   169    2
    43   168   170   am
    44   160   158   ar
    45   159   158   ar
    46   158   157    1
    47   144   143    2
    48   143   142    1
    49   152   151    1
    50    11    10    2
    51   149   151   ar
    52   149   147   ar
    53   137   136    2
    54   151   150   ar
    55   142   141    1
    56   142   145    1
    57   147   146   ar
    58   150   148   ar
    59   136   141   am
    60   136   135    1
    61   146   148   ar
    62   146   145    1
    63    10     9    1
    64   135   134    1
    65   135   138    1
    66    18    19    1
    67   132   131    2
    68    19    22    1
    69    19    20    1
    70     8     9    1
    71     9    12    1
    72    12    13    1
    73    22    23    1
    74   138   140    1
    75   138   139    1
    76    24    23   ar
    77    24    26   ar
    78   131   130    1
    79    20    21    2
    80     4     3    2
    81    23    25   ar
    82    26    28   ar
    83    14    13   ar
    84    14    16   ar
    85    13    15   ar
    86   130   133    1
    87   130   129    1
    88     3     2    1
    89    25    27   ar
    90    16    17   ar
    91    28    27   ar
    92    15    17   ar
    93     1     2    1
    94     2     5    1
    95     5     6    1
    96     5     7    1
    97   123   122    2
    98   114   113    2
    99   122   121    1
   100   128   127    1
   101    29    30    1
   102   121   120    1
   103   121   124    1
   104   126   127    1
   105   126   125    1
   106   113   120   am
   107   113   112    1
   108    31    30    1
   109    31    32    2
   110    30    33    1
   111   124   125    1
   112   112   115    1
   113   112   111    1
   114    40    39    1
   115    37    35   ar
   116    37    39   ar
   117   115   116    1
   118    35    34   ar
   119    39    38   ar
   120    34    33    1
   121    34    36   ar
   122    38    36   ar
   123   118   117    2
   124   116   117    1
   125   117   119   am
   126    52    51    1
   127    49    51   ar
   128    49    47   ar
   129    51    50   ar
   130   106   105    2
   131    47    46   ar
   132   109   108    1
   133    50    48   ar
   134   105   104    1
   135    46    48   ar
   136    46    45    1
   137    42    41    1
   138    42    43    1
   139    42    45    1
   140    92    93   ar
   141    92    90   ar
   142    93    91   ar
   143   104   107    1
   144   104   103    1
   145   108   107    1
   146   108   110    1
   147    43    44    2
   148    90    87   ar
   149    91    89   ar
   150    87    89   ar
   151    87    85   ar
   152    89    88   ar
   153    85    84    1
   154    85    86   ar
   155    84    81    1
   156    67    65   ar
   157    88    86   ar
   158    64    65    1
   159    64    61    1
   160    97    96    2
   161    65    66   ar
   162    83    82    2
   163    81    82    1
   164    81    80    1
   165    63    62    2
   166    62    61    1
   167   101   100    2
   168    96    95    1
   169    61    60    1
   170    98    95    1
   171    98    99    1
   172    80    70   am
   173   100   102   am
   174   100    99    1
   175    95    94    1
   176    60    55   am
   177    70    71    2
   178    70    69    1
   179    75    77   ar
   180    75    73   ar
   181    77    78   ar
   182    55    56    2
   183    55    54    1
   184    53    59    1
   185    53    54    1
   186    59    58    1
   187    68    69    1
   188    72    73    1
   189    72    69    1
   190    73    74   ar
   191    78    79    1
   192    78    76   ar
   193    54    57    1
   194    57    58    1
   195    74    76   ar
