@<TRIPOS>MOLECULE
tmp/2sebA00.pdb
 182 175 0 0 0
SMALL
GASTEIGER

@<TRIPOS>ATOM
      1  N          8.0210  101.2890   33.4820 N.3     7  ILE7       -0.1245
      2  CA         6.5880  101.3530   33.6810 C.3     7  ILE7        0.1561
      3  C          6.3280  101.9540   35.0410 C.2     7  ILE7        0.2260
      4  O          6.8700  101.4920   36.0440 O.2     7  ILE7       -0.2867
      5  CB         5.9320   99.9680   33.5570 C.3     7  ILE7        0.0252
      6  CG1        6.1450   99.4060   32.1510 C.3     7  ILE7        0.0019
      7  CG2        4.4490  100.0500   33.8900 C.3     7  ILE7        0.0019
      8  CD1        5.7220   97.9620   32.0000 C.3     7  ILE7        0.0001
      9  N          3.4700  103.2110   37.8660 N.3     9  GLN9       -0.1245
     10  CA         2.1250  103.2980   38.3780 C.3     9  GLN9        0.1566
     11  C          2.0490  104.5390   39.2370 C.2     9  GLN9        0.2260
     12  O          2.4990  104.5370   40.3830 O.2     9  GLN9       -0.2867
     13  CB         1.7480  102.0360   39.1540 C.3     9  GLN9        0.0367
     14  CG         0.2880  101.9910   39.5800 C.3     9  GLN9        0.0905
     15  CD        -0.0130  100.8360   40.5130 C.2     9  GLN9        0.2608
     16  OE1        0.2190   99.6760   40.1730 O.2     9  GLN9       -0.2717
     17  NE2       -0.5300  100.9220   41.7330 N.am    9  GLN9       -0.0878
     18  N         -0.1000  107.6450   41.0400 N.3    11  GLU11      -0.1245
     19  CA        -1.3810  107.9700   41.6240 C.3    11  GLU11       0.1567
     20  C         -1.2260  109.1920   42.5090 C.2    11  GLU11       0.2260
     21  O         -0.1410  109.4610   43.0360 O.2    11  GLU11      -0.2867
     22  CB        -1.9090  106.7770   42.4230 C.3    11  GLU11       0.0388
     23  CG        -0.9770  106.3280   43.5410 C.3    11  GLU11       0.1160
     24  CD        -1.1440  104.8640   43.8970 C.2    11  GLU11       0.3649
     25  OE1       -1.0800  104.0170   42.9810 O.co2  11  GLU11      -0.2457
     26  OE2       -1.3370  104.5620   45.0940 O.co2  11  GLU11      -0.2457
     27  N         -5.2440  107.5750   39.1760 N.3    22  PHE22      -0.1241
     28  CA        -4.5190  106.3280   39.1430 C.3    22  PHE22       0.1605
     29  C         -4.2580  105.9850   37.6970 C.2    22  PHE22       0.2264
     30  O         -5.1930  105.8010   36.9230 O.2    22  PHE22      -0.2867
     31  CB        -5.3160  105.2380   39.8610 C.3    22  PHE22       0.0534
     32  CG        -4.5980  103.9230   39.9820 C.ar   22  PHE22      -0.0203
     33  CD1       -4.5810  103.0250   38.9270 C.ar   22  PHE22      -0.0042
     34  CD2       -3.9420  103.5840   41.1540 C.ar   22  PHE22      -0.0042
     35  CE1       -3.9220  101.8140   39.0390 C.ar   22  PHE22      -0.0003
     36  CE2       -3.2820  102.3760   41.2730 C.ar   22  PHE22      -0.0003
     37  CZ        -3.2710  101.4900   40.2130 C.ar   22  PHE22      -0.0000
     38  N         -1.1640  104.3060   34.6310 N.3    24  PHE24      -0.1241
     39  CA         0.0330  103.5250   34.3570 C.3    24  PHE24       0.1605
     40  C          0.7550  104.2150   33.2140 C.2    24  PHE24       0.2264
     41  O          0.1340  104.6220   32.2320 O.2    24  PHE24      -0.2867
     42  CB        -0.3370  102.0850   33.9930 C.3    24  PHE24       0.0534
     43  CG        -0.1970  101.1110   35.1230 C.ar   24  PHE24      -0.0203
     44  CD1       -1.0950  101.1240   36.1780 C.ar   24  PHE24      -0.0042
     45  CD2        0.8270  100.1820   35.1270 C.ar   24  PHE24      -0.0042
     46  CE1       -0.9700  100.2260   37.2210 C.ar   24  PHE24      -0.0003
     47  CE2        0.9580   99.2810   36.1670 C.ar   24  PHE24      -0.0003
     48  CZ         0.0580   99.3030   37.2160 C.ar   24  PHE24      -0.0000
     49  N         -0.6840  104.1410   29.5960 N.3    31  ILE31      -0.1231
     50  CA        -1.2860  102.9020   29.1520 C.3    31  ILE31       0.1692
     51  C         -2.7750  102.9750   29.4360 C.2    31  ILE31       0.2592
     52  O         -3.5970  102.6980   28.5630 O.2    31  ILE31      -0.2718
     53  CB        -0.6640  101.6760   29.8380 C.3    31  ILE31       0.0266
     54  CG1        0.8210  101.5690   29.4890 C.3    31  ILE31       0.0019
     55  CG2       -1.4090  100.4110   29.4350 C.3    31  ILE31       0.0020
     56  CD1        1.5570  100.5090   30.2770 C.3    31  ILE31       0.0001
     57  N         -3.0770  103.3720   30.6670 N.am   32  PHE32      -0.1976
     58  CA        -4.4490  103.5220   31.1120 C.3    32  PHE32       0.1639
     59  C         -4.5190  104.2540   32.4430 C.2    32  PHE32       0.2290
     60  O         -3.5340  104.3450   33.1720 O.2    32  PHE32      -0.2864
     61  CB        -5.1340  102.1610   31.2460 C.3    32  PHE32       0.0560
     62  CG        -4.6630  101.3670   32.4320 C.ar   32  PHE32      -0.0200
     63  CD1       -5.2060  101.5760   33.6910 C.ar   32  PHE32      -0.0042
     64  CD2       -3.6740  100.4120   32.2850 C.ar   32  PHE32      -0.0042
     65  CE1       -4.7670  100.8450   34.7820 C.ar   32  PHE32      -0.0003
     66  CE2       -3.2310   99.6780   33.3700 C.ar   32  PHE32      -0.0003
     67  CZ        -3.7780   99.8950   34.6200 C.ar   32  PHE32      -0.0000
     68  N         -8.3340  102.7560   28.7830 N.3    43  TRP43      -0.1241
     69  CA        -7.0770  102.6120   28.0590 C.3    43  TRP43       0.1605
     70  C         -6.8380  103.8190   27.1600 C.2    43  TRP43       0.2264
     71  O         -7.7810  104.3820   26.6050 O.2    43  TRP43      -0.2867
     72  CB        -7.0800  101.3140   27.2420 C.3    43  TRP43       0.0550
     73  CG        -7.4060  100.1030   28.0580 C.ar   43  TRP43       0.0003
     74  CD1       -8.6410   99.5590   28.2600 C.ar   43  TRP43       0.0946
     75  CD2       -6.4820   99.2850   28.7850 C.ar   43  TRP43       0.0152
     76  NE1       -8.5450   98.4620   29.0810 N.ar   43  TRP43      -0.2442
     77  CE2       -7.2300   98.2770   29.4230 C.ar   43  TRP43       0.0810
     78  CE3       -5.0950   99.3130   28.9670 C.ar   43  TRP43       0.0012
     79  CZ2       -6.6420   97.3140   30.2400 C.ar   43  TRP43       0.0191
     80  CZ3       -4.5120   98.3530   29.7730 C.ar   43  TRP43       0.0001
     81  CH2       -5.2850   97.3680   30.4010 C.ar   43  TRP43       0.0015
     82  N         -6.0640   93.2850   24.5490 N.3    51  PHE51      -0.1227
     83  CA        -4.9610   92.4210   24.9640 C.3    51  PHE51       0.1736
     84  C         -4.7490   92.3370   26.4730 C.2    51  PHE51       0.2595
     85  O         -4.1820   91.3620   26.9700 O.2    51  PHE51      -0.2718
     86  CB        -3.6600   92.8970   24.3030 C.3    51  PHE51       0.0547
     87  CG        -3.8270   93.3390   22.8750 C.ar   51  PHE51      -0.0202
     88  CD1       -4.2550   92.4460   21.8960 C.ar   51  PHE51      -0.0042
     89  CD2       -3.5810   94.6600   22.5160 C.ar   51  PHE51      -0.0042
     90  CE1       -4.4390   92.8700   20.5770 C.ar   51  PHE51      -0.0003
     91  CE2       -3.7640   95.0900   21.2030 C.ar   51  PHE51      -0.0003
     92  CZ        -4.1930   94.1940   20.2350 C.ar   51  PHE51      -0.0000
     93  N         -5.1960   93.3520   27.2030 N.am   52  ALA52      -0.1966
     94  CA        -5.0180   93.3670   28.6450 C.3    52  ALA52       0.1728
     95  C         -6.2470   93.8650   29.3800 C.2    52  ALA52       0.2617
     96  O         -7.1060   94.5380   28.8160 O.2    52  ALA52      -0.2715
     97  CB        -3.8150   94.2130   29.0130 C.3    52  ALA52       0.0334
     98  N         -6.3040   93.5340   30.6600 N.am   53  SER53      -0.1936
     99  CA        -7.3980   93.9410   31.5210 C.3    53  SER53       0.2055
    100  C         -6.7700   94.4210   32.8210 C.2    53  SER53       0.2643
    101  O         -5.6080   94.1300   33.1050 O.2    53  SER53      -0.2714
    102  CB        -8.3150   92.7530   31.8130 C.3    53  SER53       0.2130
    103  OG        -8.5360   91.9610   30.6630 O.3    53  SER53      -0.2179
    104  N         -7.5290   95.1850   33.5880 N.am   54  PHE54      -0.1959
    105  CA        -7.0720   95.6820   34.8720 C.3    54  PHE54       0.1771
    106  C         -8.2900   95.7630   35.7690 C.2    54  PHE54       0.2619
    107  O         -9.3710   96.1620   35.3290 O.2    54  PHE54      -0.2715
    108  CB        -6.4210   97.0660   34.7510 C.3    54  PHE54       0.0574
    109  CG        -6.0090   97.6510   36.0730 C.ar   54  PHE54      -0.0200
    110  CD1       -4.8870   97.1690   36.7410 C.ar   54  PHE54      -0.0042
    111  CD2       -6.7700   98.6510   36.6770 C.ar   54  PHE54      -0.0042
    112  CE1       -4.5290   97.6700   37.9940 C.ar   54  PHE54      -0.0003
    113  CE2       -6.4180   99.1550   37.9310 C.ar   54  PHE54      -0.0003
    114  CZ        -5.2980   98.6610   38.5870 C.ar   54  PHE54      -0.0000
    115  N         -8.1370   95.3210   37.0090 N.am   55  GLU55      -0.1977
    116  CA        -9.2310   95.3760   37.9590 C.3    55  GLU55       0.1602
    117  C         -9.2900   96.7970   38.5140 C.2    55  GLU55       0.2287
    118  O         -8.5830   97.1340   39.4660 O.2    55  GLU55      -0.2864
    119  CB        -9.0350   94.3430   39.0790 C.3    55  GLU55       0.0415
    120  CG       -10.2060   94.2320   40.0530 C.3    55  GLU55       0.1163
    121  CD       -11.5420   94.0750   39.3500 C.2    55  GLU55       0.3649
    122  OE1      -11.8370   92.9680   38.8600 O.co2  55  GLU55      -0.2457
    123  OE2      -12.2970   95.0670   39.2900 O.co2  55  GLU55      -0.2457
    124  N         -9.2620   97.7860   42.1120 N.3    58  GLY58      -0.1225
    125  CA        -7.9860   97.8830   42.7970 C.3    58  GLY58       0.1811
    126  C         -7.4990   99.3080   42.9770 C.2    58  GLY58       0.2280
    127  O         -7.0330   99.6790   44.0580 O.2    58  GLY58      -0.2866
    128  N         -5.8140  101.9590   46.4720 N.3    62  ASN62      -0.1240
    129  CA        -4.6050  102.7640   46.5730 C.3    62  ASN62       0.1653
    130  C         -4.9380  104.2000   46.9500 C.2    62  ASN62       0.2266
    131  O         -4.3370  104.7660   47.8600 O.2    62  ASN62      -0.2867
    132  CB        -3.8400  102.7500   45.2490 C.3    62  ASN62       0.1155
    133  CG        -2.9100  101.5610   45.1230 C.2    62  ASN62       0.2627
    134  OD1       -1.6960  101.6850   45.2980 O.2    62  ASN62      -0.2716
    135  ND2       -3.4670  100.4060   44.8000 N.am   62  ASN62      -0.0877
    136  N         -5.7180  104.7940   50.5880 N.3    65  VAL65      -0.1231
    137  CA        -4.4970  104.8070   51.3780 C.3    65  VAL65       0.1692
    138  C         -3.7860  106.1480   51.2220 C.2    65  VAL65       0.2592
    139  O         -3.3000  106.7180   52.2020 O.2    65  VAL65      -0.2718
    140  CB        -3.5610  103.6550   50.9660 C.3    65  VAL65       0.0266
    141  CG1       -2.2170  103.7880   51.6610 C.3    65  VAL65       0.0020
    142  CG2       -4.2000  102.3200   51.3150 C.3    65  VAL65       0.0020
    143  N         -3.7550  106.6610   49.9960 N.am   66  ASP66      -0.1974
    144  CA        -3.1110  107.9410   49.7040 C.3    66  ASP66       0.1709
    145  C         -3.8240  109.0900   50.4070 C.2    66  ASP66       0.2293
    146  O         -3.1820  110.0410   50.8500 O.2    66  ASP66      -0.2864
    147  CB        -3.0810  108.2010   48.1950 C.3    66  ASP66       0.1436
    148  CG        -2.4290  107.0730   47.4140 C.2    66  ASP66       0.3671
    149  OD1       -1.7600  106.2120   48.0220 O.co2  66  ASP66      -0.2456
    150  OD2       -2.5960  107.0470   46.1800 O.co2  66  ASP66      -0.2456
    151  N         -5.4410  108.8050   53.1890 N.3    68  ALA68      -0.1231
    152  CA        -5.0680  108.6040   54.5820 C.3    68  ALA68       0.1694
    153  C         -3.6560  109.1230   54.8420 C.2    68  ALA68       0.2592
    154  O         -3.4200  109.8150   55.8320 O.2    68  ALA68      -0.2718
    155  CB        -5.1630  107.1300   54.9490 C.3    68  ALA68       0.0304
    156  N         -2.7350  108.8260   53.9270 N.am   69  ASN69      -0.1974
    157  CA        -1.3420  109.2640   54.0480 C.3    69  ASN69       0.1688
    158  C         -1.2220  110.7790   53.9150 C.2    69  ASN69       0.2292
    159  O         -0.3840  111.3960   54.5780 O.2    69  ASN69      -0.2864
    160  CB        -0.4550  108.5890   52.9930 C.3    69  ASN69       0.1181
    161  CG        -0.2410  107.1120   53.2560 C.2    69  ASN69       0.2629
    162  OD1       -0.5750  106.5920   54.3260 O.2    69  ASN69      -0.2716
    163  ND2        0.3400  106.4290   52.2830 N.am   69  ASN69      -0.0877
    164  N         -2.0040  112.4020   57.1430 N.3    72  ILE72      -0.1245
    165  CA        -0.8630  112.1820   58.0280 C.3    72  ILE72       0.1561
    166  C          0.2930  113.1250   57.7010 C.2    72  ILE72       0.2260
    167  O          0.8460  113.7660   58.5900 O.2    72  ILE72      -0.2867
    168  CB        -0.3860  110.7070   57.9580 C.3    72  ILE72       0.0252
    169  CG1       -1.4430  109.7940   58.5810 C.3    72  ILE72       0.0019
    170  CG2        0.9580  110.5330   58.6640 C.3    72  ILE72       0.0019
    171  CD1       -1.2550  108.3220   58.2750 C.3    72  ILE72       0.0001
    172  N          1.7630  116.2550   59.6110 N.3    76  ARG76      -0.1245
    173  CA         3.1770  116.0670   59.9290 C.3    76  ARG76       0.1563
    174  C          4.0990  117.1670   59.3900 C.2    76  ARG76       0.2260
    175  O          5.1830  117.3810   59.9280 O.2    76  ARG76      -0.2867
    176  CB         3.6750  114.7090   59.4250 C.3    76  ARG76       0.0307
    177  CG         4.9550  114.2280   60.0980 C.3    76  ARG76       0.0489
    178  CD         4.9980  112.7100   60.1940 C.3    76  ARG76       0.2205
    179  NE         5.1380  112.0800   58.8830 N.pl3  76  ARG76      -0.0865
    180  CZ         4.8170  110.8160   58.6240 C.cat  76  ARG76       0.5346
    181  NH1        4.3360  110.0410   59.5870 N.pl3  76  ARG76       0.1354
    182  NH2        4.9800  110.3270   57.4020 N.pl3  76  ARG76       0.1354
@<TRIPOS>BOND
     1    92    90   ar
     2    92    91   ar
     3    90    88   ar
     4    91    89   ar
     5    88    87   ar
     6    89    87   ar
     7    87    86    1
     8    86    83    1
     9    82    83    1
    10    83    84    1
    11    84    85    2
    12    84    93   am
    13    71    70    2
    14    70    69    1
    15    93    94    1
    16    72    73    1
    17    72    69    1
    18    73    74   ar
    19    73    75   ar
    20    69    68    1
    21    74    76   ar
    22    52    51    2
    23    94    97    1
    24    94    95    1
    25    75    78   ar
    26    75    77   ar
    27    96    95    2
    28    78    80   ar
    29    76    77   ar
    30    50    51    1
    31    50    49    1
    32    50    53    1
    33    95    98   am
    34    77    79   ar
    35    55    53    1
    36    51    57   am
    37    54    53    1
    38    54    56    1
    39    80    81   ar
    40    79    81   ar
    41    98    99    1
    42   103   102    1
    43    57    58    1
    44    58    61    1
    45    58    59    1
    46    61    62    1
    47    99   102    1
    48    99   100    1
    49     8     6    1
    50     6     5    1
    51    41    40    2
    52    64    62   ar
    53    64    66   ar
    54    62    63   ar
    55    59    60    2
    56   100   101    2
    57   100   104   am
    58    40    39    1
    59    66    67   ar
    60     1     2    1
    61     5     2    1
    62     5     7    1
    63   104   105    1
    64     2     3    1
    65    63    65   ar
    66    42    39    1
    67    42    43    1
    68    39    38    1
    69    67    65   ar
    70   108   105    1
    71   108   109    1
    72   105   106    1
    73     3     4    2
    74    43    45   ar
    75    43    44   ar
    76    45    47   ar
    77   107   106    2
    78   106   115   am
    79   109   111   ar
    80   109   110   ar
    81    47    48   ar
    82    44    46   ar
    83   111   113   ar
    84   110   112   ar
    85    30    29    2
    86   115   116    1
    87    48    46   ar
    88    29    28    1
    89     9    10    1
    90   113   114   ar
    91   116   117    1
    92   116   119    1
    93   112   114   ar
    94    10    13    1
    95    10    11    1
    96   117   118    2
    97   122   121   ar
    98    33    35   ar
    99    33    32   ar
   100    35    37   ar
   101   119   120    1
   102    28    27    1
   103    28    31    1
   104    13    14    1
   105    11    12    2
   106   123   121   ar
   107   121   120    1
   108    14    15    1
   109    31    32    1
   110    32    34   ar
   111    16    15    2
   112    37    36   ar
   113    15    17   am
   114    18    19    1
   115    34    36   ar
   116    19    22    1
   117    19    20    1
   118   124   125    1
   119    22    23    1
   120    20    21    2
   121   125   126    1
   122   126   127    2
   123    25    24   ar
   124    23    24    1
   125    24    26   ar
   126   135   133   am
   127   133   132    1
   128   133   134    2
   129   132   129    1
   130   150   148   ar
   131   128   129    1
   132   129   130    1
   133   130   131    2
   134   148   149   ar
   135   148   147    1
   136   147   144    1
   137   144   143    1
   138   144   145    1
   139   143   138   am
   140   145   146    2
   141   136   137    1
   142   140   142    1
   143   140   137    1
   144   140   141    1
   145   138   137    1
   146   138   139    2
   147   163   161   am
   148   160   161    1
   149   160   157    1
   150   151   152    1
   151   161   162    2
   152   158   157    1
   153   158   159    2
   154   156   157    1
   155   156   153   am
   156   152   153    1
   157   152   155    1
   158   153   154    2
   159   164   165    1
   160   182   180    1
   161   166   165    1
   162   166   167    2
   163   168   165    1
   164   168   169    1
   165   168   170    1
   166   171   169    1
   167   180   179    2
   168   180   181    1
   169   179   178    1
   170   174   175    2
   171   174   173    1
   172   176   173    1
   173   176   177    1
   174   172   173    1
   175   177   178    1
