@<TRIPOS>MOLECULE
tmp/2semA00.pdb
 112 113 0 0 0
SMALL
GASTEIGER

@<TRIPOS>ATOM
      1  N         -4.8480   28.0560    5.1180 N.3     9  PHE9       -0.1227
      2  CA        -4.4150   26.6600    5.2080 C.3     9  PHE9        0.1736
      3  C         -4.2600   26.0330    3.8270 C.2     9  PHE9        0.2595
      4  O         -4.6280   26.6360    2.8200 O.2     9  PHE9       -0.2718
      5  CB        -5.4280   25.8410    6.0230 C.3     9  PHE9        0.0547
      6  CG        -5.5160   26.2480    7.4700 C.ar    9  PHE9       -0.0202
      7  CD1       -4.6110   25.7480    8.4030 C.ar    9  PHE9       -0.0042
      8  CD2       -6.4890   27.1500    7.8950 C.ar    9  PHE9       -0.0042
      9  CE1       -4.6710   26.1380    9.7370 C.ar    9  PHE9       -0.0003
     10  CE2       -6.5590   27.5490    9.2300 C.ar    9  PHE9       -0.0003
     11  CZ        -5.6470   27.0440   10.1530 C.ar    9  PHE9       -0.0000
     12  N         -3.6630   24.8440    3.7830 N.am   10  ASP10      -0.1960
     13  CA        -3.4960   24.1160    2.5310 C.3    10  ASP10       0.1840
     14  C         -4.8520   23.5200    2.2300 C.2    10  ASP10       0.2622
     15  O         -5.5710   23.1210    3.1480 O.2    10  ASP10      -0.2715
     16  CB        -2.5280   22.9360    2.6820 C.3    10  ASP10       0.1450
     17  CG        -1.1100   23.3540    2.9810 C.2    10  ASP10       0.3671
     18  OD1       -0.7940   24.5610    2.9360 O.co2  10  ASP10      -0.2456
     19  OD2       -0.2990   22.4490    3.2630 O.co2  10  ASP10      -0.2456
     20  N         -5.2190   23.4870    0.9550 N.am   11  PHE11      -0.1974
     21  CA        -6.4780   22.8780    0.5700 C.3    11  PHE11       0.1639
     22  C         -6.1730   21.8090   -0.4560 C.2    11  PHE11       0.2290
     23  O         -5.7840   22.1100   -1.5860 O.2    11  PHE11      -0.2864
     24  CB        -7.4680   23.8880   -0.0100 C.3    11  PHE11       0.0560
     25  CG        -8.7230   23.2500   -0.5490 C.ar   11  PHE11      -0.0200
     26  CD1       -9.4970   22.4210    0.2590 C.ar   11  PHE11      -0.0042
     27  CD2       -9.1020   23.4380   -1.8750 C.ar   11  PHE11      -0.0042
     28  CE1      -10.6300   21.7840   -0.2480 C.ar   11  PHE11      -0.0003
     29  CE2      -10.2320   22.8060   -2.3920 C.ar   11  PHE11      -0.0003
     30  CZ       -10.9980   21.9750   -1.5740 C.ar   11  PHE11      -0.0000
     31  N        -10.5060   17.0840   -3.3220 N.3    14  GLN14      -0.1231
     32  CA       -10.9740   15.7020   -3.3100 C.3    14  GLN14       0.1698
     33  C        -11.8730   15.4360   -4.5090 C.2    14  GLN14       0.2592
     34  O        -12.2300   14.2920   -4.7830 O.2    14  GLN14      -0.2718
     35  CB       -11.7290   15.3990   -2.0130 C.3    14  GLN14       0.0381
     36  CG       -10.8920   15.5640   -0.7550 C.3    14  GLN14       0.0905
     37  CD       -11.6490   15.1990    0.5070 C.2    14  GLN14       0.2608
     38  OE1      -12.5650   15.9100    0.9280 O.2    14  GLN14      -0.2717
     39  NE2      -11.2640   14.0860    1.1250 N.am   14  GLN14      -0.0878
     40  N        -12.2300   16.5050   -5.2170 N.am   15  GLU15      -0.1979
     41  CA       -13.0840   16.4210   -6.3990 C.3    15  GLU15       0.1602
     42  C        -12.4890   17.3090   -7.4970 C.2    15  GLU15       0.2287
     43  O        -11.7450   18.2490   -7.2090 O.2    15  GLU15      -0.2864
     44  CB       -14.5060   16.8800   -6.0490 C.3    15  GLU15       0.0415
     45  CG       -15.5570   16.6340   -7.1290 C.3    15  GLU15       0.1163
     46  CD       -16.9430   17.1400   -6.7370 C.2    15  GLU15       0.3649
     47  OE1      -17.4720   16.7120   -5.6860 O.co2  15  GLU15      -0.2457
     48  OE2      -17.5080   17.9660   -7.4870 O.co2  15  GLU15      -0.2457
     49  N        -11.8170   21.7500   -8.3490 N.3    18  GLU18      -0.1245
     50  CA       -11.4590   22.4380   -7.1180 C.3    18  GLU18       0.1567
     51  C        -10.0310   22.9590   -7.1810 C.2    18  GLU18       0.2260
     52  O         -9.1090   22.2350   -7.5650 O.2    18  GLU18      -0.2867
     53  CB       -11.6500   21.5060   -5.9220 C.3    18  GLU18       0.0388
     54  CG       -13.1140   21.2060   -5.6430 C.3    18  GLU18       0.1160
     55  CD       -13.3280   20.0800   -4.6500 C.2    18  GLU18       0.3649
     56  OE1      -12.3580   19.6470   -3.9890 O.co2  18  GLU18      -0.2457
     57  OE2      -14.4860   19.6250   -4.5400 O.co2  18  GLU18      -0.2457
     58  N        -20.0820   29.2650    0.7870 N.3    36  ASN36      -0.1225
     59  CA       -19.0610   28.2610    1.0700 C.3    36  ASN36       0.1785
     60  C        -18.0490   28.0030   -0.0330 C.2    36  ASN36       0.2597
     61  O        -16.8710   27.7930    0.2460 O.2    36  ASN36      -0.2718
     62  CB       -19.7230   26.9390    1.4510 C.3    36  ASN36       0.1169
     63  CG       -20.5990   27.0650    2.6680 C.2    36  ASN36       0.2627
     64  OD1      -21.7650   26.6810    2.6450 O.2    36  ASN36      -0.2716
     65  ND2      -20.0480   27.6230    3.7390 N.am   36  ASN36      -0.0877
     66  N        -18.5140   27.9760   -1.2770 N.am   37  TRP37      -0.1976
     67  CA       -17.6250   27.7080   -2.4030 C.3    37  TRP37       0.1640
     68  C        -17.3720   28.9030   -3.3080 C.2    37  TRP37       0.2290
     69  O        -18.2620   29.3630   -4.0210 O.2    37  TRP37      -0.2864
     70  CB       -18.1370   26.5130   -3.2110 C.3    37  TRP37       0.0576
     71  CG       -18.0010   25.2200   -2.4640 C.ar   37  TRP37       0.0006
     72  CD1      -18.9720   24.5770   -1.7450 C.ar   37  TRP37       0.0946
     73  CD2      -16.8080   24.4400   -2.3140 C.ar   37  TRP37       0.0152
     74  NE1      -18.4520   23.4510   -1.1510 N.ar   37  TRP37      -0.2442
     75  CE2      -17.1280   23.3420   -1.4830 C.ar   37  TRP37       0.0810
     76  CE3      -15.4980   24.5630   -2.8000 C.ar   37  TRP37       0.0012
     77  CZ2      -16.1850   22.3740   -1.1260 C.ar   37  TRP37       0.0191
     78  CZ3      -14.5610   23.6000   -2.4450 C.ar   37  TRP37       0.0001
     79  CH2      -14.9110   22.5180   -1.6150 C.ar   37  TRP37       0.0015
     80  N        -12.9320   26.3360   -0.5720 N.3    50  PRO50      -0.2102
     81  CA       -13.6650   26.6330    0.6640 C.3    50  PRO50       0.1504
     82  C        -13.4290   28.0750    1.0880 C.2    50  PRO50       0.2576
     83  O        -12.2920   28.4670    1.3480 O.2    50  PRO50      -0.2718
     84  CB       -13.0360   25.6700    1.6720 C.3    50  PRO50       0.0282
     85  CG       -12.5930   24.5400    0.8340 C.3    50  PRO50       0.0208
     86  CD       -11.9790   25.2370   -0.3460 C.3    50  PRO50       0.0893
     87  N        -14.5060   28.8510    1.1660 N.am   51  SER51      -0.1938
     88  CA       -14.4280   30.2600    1.5500 C.3    51  SER51       0.2055
     89  C        -13.7430   30.4980    2.8980 C.2    51  SER51       0.2643
     90  O        -13.0560   31.5080    3.0740 O.2    51  SER51      -0.2714
     91  CB       -15.8260   30.8930    1.5570 C.3    51  SER51       0.2130
     92  OG       -16.6560   30.3340    2.5620 O.3    51  SER51      -0.2179
     93  N        -13.9110   29.5590    3.8310 N.am   52  ASN52      -0.1957
     94  CA       -13.3130   29.6720    5.1610 C.3    52  ASN52       0.1819
     95  C        -11.8090   29.3860    5.2420 C.2    52  ASN52       0.2621
     96  O        -11.1950   29.5600    6.2980 O.2    52  ASN52      -0.2715
     97  CB       -14.0850   28.8200    6.1790 C.3    52  ASN52       0.1195
     98  CG       -14.1680   27.3500    5.7910 C.2    52  ASN52       0.2630
     99  OD1      -13.9080   26.9720    4.6500 O.2    52  ASN52      -0.2716
    100  ND2      -14.5440   26.5150    6.7520 N.am   52  ASN52      -0.0877
    101  N        -11.2130   28.9650    4.1280 N.am   53  TYR53      -0.1974
    102  CA        -9.7750   28.6800    4.0850 C.3    53  TYR53       0.1639
    103  C         -8.9510   29.9090    3.7090 C.2    53  TYR53       0.2290
    104  O         -7.7240   29.8340    3.6120 O.2    53  TYR53      -0.2864
    105  CB        -9.4680   27.5550    3.0900 C.3    53  TYR53       0.0560
    106  CG        -9.6180   26.1590    3.6560 C.ar   53  TYR53      -0.0198
    107  CD1      -10.7890   25.7700    4.3140 C.ar   53  TYR53      -0.0009
    108  CD2       -8.5860   25.2270    3.5340 C.ar   53  TYR53      -0.0009
    109  CE1      -10.9260   24.4880    4.8410 C.ar   53  TYR53       0.0417
    110  CE2       -8.7130   23.9390    4.0590 C.ar   53  TYR53       0.0417
    111  CZ        -9.8860   23.5780    4.7100 C.ar   53  TYR53       0.1957
    112  OH       -10.0210   22.3150    5.2350 O.3    53  TYR53      -0.2866
@<TRIPOS>BOND
     1    49    50    1
     2    52    51    2
     3    42    43    2
     4    42    41    1
     5    48    46   ar
     6    51    50    1
     7    45    46    1
     8    45    44    1
     9    50    53    1
    10    46    47   ar
    11    41    44    1
    12    41    40    1
    13    53    54    1
    14    54    55    1
    15    40    33   am
    16    34    33    2
    17    55    57   ar
    18    55    56   ar
    19    33    32    1
    20    69    68    2
    21    31    32    1
    22    32    35    1
    23    68    67    1
    24    70    71    1
    25    70    67    1
    26    76    78   ar
    27    76    73   ar
    28    71    73   ar
    29    71    72   ar
    30    78    79   ar
    31    67    66    1
    32    29    27   ar
    33    29    30   ar
    34    73    75   ar
    35    35    36    1
    36    27    25   ar
    37    72    74   ar
    38    79    77   ar
    39    23    22    2
    40    30    28   ar
    41    75    74   ar
    42    75    77   ar
    43    66    60   am
    44    36    37    1
    45    80    86    1
    46    80    81    1
    47    25    24    1
    48    25    26   ar
    49    22    21    1
    50    86    85    1
    51    28    26   ar
    52    60    61    2
    53    60    59    1
    54    24    21    1
    55    37    38    2
    56    37    39   am
    57    21    20    1
    58    81    82    1
    59    81    84    1
    60    58    59    1
    61    85    84    1
    62    20    14   am
    63    59    62    1
    64    82    87   am
    65    82    83    2
    66    87    88    1
    67    62    63    1
    68    88    91    1
    69    88    89    1
    70    91    92    1
    71    14    13    1
    72    14    15    2
    73    13    16    1
    74    13    12    1
    75    64    63    2
    76    63    65   am
    77    16    17    1
    78     4     3    2
    79    89    90    2
    80    89    93   am
    81    18    17   ar
    82    17    19   ar
    83   105   106    1
    84   105   102    1
    85   108   106   ar
    86   108   110   ar
    87   104   103    2
    88   106   107   ar
    89   103   102    1
    90    12     3   am
    91     3     2    1
    92    93    94    1
    93   110   111   ar
    94   102   101    1
    95   101    95   am
    96   107   109   ar
    97    99    98    2
    98   111   109   ar
    99   111   112    1
   100     1     2    1
   101    94    95    1
   102    94    97    1
   103     2     5    1
   104    95    96    2
   105    98    97    1
   106    98   100   am
   107     5     6    1
   108     6     8   ar
   109     6     7   ar
   110     8    10   ar
   111     7     9   ar
   112    10    11   ar
   113     9    11   ar
