@<TRIPOS>MOLECULE
tmp/2semB00.pdb
 129 129 0 0 0
SMALL
GASTEIGER

@<TRIPOS>ATOM
      1  N          1.0490   35.3010   10.9810 N.3     8  PHE8       -0.1227
      2  CA         2.4380   34.9400   11.2540 C.3     8  PHE8        0.1736
      3  C          2.7160   34.9880   12.7500 C.2     8  PHE8        0.2595
      4  O          1.9410   35.5610   13.5210 O.2     8  PHE8       -0.2718
      5  CB         3.4080   35.9170   10.5680 C.3     8  PHE8        0.0547
      6  CG         3.0180   36.2990    9.1670 C.ar    8  PHE8       -0.0202
      7  CD1        3.3530   35.4870    8.0880 C.ar    8  PHE8       -0.0042
      8  CD2        2.3220   37.4830    8.9280 C.ar    8  PHE8       -0.0042
      9  CE1        2.9990   35.8480    6.7900 C.ar    8  PHE8       -0.0003
     10  CE2        1.9630   37.8530    7.6360 C.ar    8  PHE8       -0.0003
     11  CZ         2.3020   37.0350    6.5640 C.ar    8  PHE8       -0.0000
     12  N          3.8330   34.3840   13.1470 N.am    9  ASP9       -0.1960
     13  CA         4.2690   34.3830   14.5410 C.3     9  ASP9        0.1840
     14  C          4.7140   35.8000   14.8700 C.2     9  ASP9        0.2622
     15  O          5.3250   36.4720   14.0360 O.2     9  ASP9       -0.2715
     16  CB         5.4770   33.4580   14.7340 C.3     9  ASP9        0.1450
     17  CG         5.0920   32.0000   14.8890 C.2     9  ASP9        0.3671
     18  OD1        3.9990   31.5940   14.4360 O.co2   9  ASP9       -0.2456
     19  OD2        5.9020   31.2550   15.4770 O.co2   9  ASP9       -0.2456
     20  N          4.4120   36.2540   16.0800 N.am   10  PHE10      -0.1974
     21  CA         4.8190   37.5890   16.4920 C.3    10  PHE10       0.1639
     22  C          5.4560   37.5790   17.8720 C.2    10  PHE10       0.2290
     23  O          4.7910   37.3380   18.8780 O.2    10  PHE10      -0.2864
     24  CB         3.6380   38.5660   16.4550 C.3    10  PHE10       0.0560
     25  CG         3.9530   39.9170   17.0350 C.ar   10  PHE10      -0.0200
     26  CD1        5.0070   40.6780   16.5340 C.ar   10  PHE10      -0.0042
     27  CD2        3.2190   40.4140   18.1070 C.ar   10  PHE10      -0.0042
     28  CE1        5.3280   41.9150   17.0970 C.ar   10  PHE10      -0.0003
     29  CE2        3.5300   41.6500   18.6790 C.ar   10  PHE10      -0.0003
     30  CZ         4.5870   42.3990   18.1720 C.ar   10  PHE10      -0.0000
     31  N          9.0820   44.9150   22.3740 N.3    14  GLU14      -0.1231
     32  CA         8.8120   46.0530   23.2400 C.3    14  GLU14       0.1699
     33  C          7.7500   45.7130   24.2920 C.2    14  GLU14       0.2593
     34  O          7.2100   44.6030   24.3140 O.2    14  GLU14      -0.2718
     35  CB         8.3460   47.2370   22.3860 C.3    14  GLU14       0.0402
     36  CG         8.7540   48.6000   22.9070 C.3    14  GLU14       0.1161
     37  CD        10.2380   48.8640   22.7480 C.2    14  GLU14       0.3649
     38  OE1       10.6920   49.0030   21.5930 O.co2  14  GLU14      -0.2457
     39  OE2       10.9460   48.9390   23.7750 O.co2  14  GLU14      -0.2457
     40  N          7.4580   46.6830   25.1550 N.am   15  SER15      -0.1938
     41  CA         6.4710   46.5210   26.2200 C.3    15  SER15       0.2055
     42  C          5.0310   46.7380   25.7420 C.2    15  SER15       0.2644
     43  O          4.7720   47.5610   24.8570 O.2    15  SER15      -0.2714
     44  CB         6.7820   47.4810   27.3710 C.3    15  SER15       0.2130
     45  OG         6.7420   48.8280   26.9290 O.3    15  SER15      -0.2179
     46  N          4.1010   46.0030   26.3510 N.am   16  GLY16      -0.1939
     47  CA         2.6990   46.1180   25.9930 C.3    16  GLY16       0.2014
     48  C          2.3190   45.4150   24.7030 C.2    16  GLY16       0.2638
     49  O          1.1520   45.4350   24.3040 O.2    16  GLY16      -0.2714
     50  N          3.2980   44.8040   24.0400 N.am   17  GLU17      -0.1977
     51  CA         3.0410   44.0940   22.7910 C.3    17  GLU17       0.1602
     52  C          2.6530   42.6400   23.0360 C.2    17  GLU17       0.2287
     53  O          3.3650   41.8950   23.7180 O.2    17  GLU17      -0.2864
     54  CB         4.2420   44.2010   21.8560 C.3    17  GLU17       0.0415
     55  CG         4.4770   45.6260   21.3760 C.3    17  GLU17       0.1163
     56  CD         5.6690   45.7720   20.4450 C.2    17  GLU17       0.3649
     57  OE1        6.1790   44.7530   19.9290 O.co2  17  GLU17      -0.2457
     58  OE2        6.0900   46.9270   20.2240 O.co2  17  GLU17      -0.2457
     59  N         -5.4980   53.1830   16.3700 N.3    33  ASP33      -0.1239
     60  CA        -4.2670   53.2910   15.6000 C.3    33  ASP33       0.1674
     61  C         -4.4220   52.3040   14.4340 C.2    33  ASP33       0.2266
     62  O         -4.7900   51.1480   14.6390 O.2    33  ASP33      -0.2867
     63  CB        -3.0730   52.9080   16.4760 C.3    33  ASP33       0.1410
     64  CG        -1.7420   53.1640   15.7970 C.2    33  ASP33       0.3668
     65  OD1       -1.4260   52.4620   14.8150 O.co2  33  ASP33      -0.2456
     66  OD2       -1.0050   54.0640   16.2470 O.co2  33  ASP33      -0.2456
     67  N         -2.1790   50.9070   12.6610 N.3    35  ASN35      -0.1225
     68  CA        -1.1330   49.8900   12.6660 C.3    35  ASN35       0.1785
     69  C         -1.0360   49.0600   13.9380 C.2    35  ASN35       0.2597
     70  O         -0.7230   47.8740   13.8760 O.2    35  ASN35      -0.2718
     71  CB         0.2260   50.5250   12.3630 C.3    35  ASN35       0.1169
     72  CG         0.3840   50.9070   10.9020 C.2    35  ASN35       0.2627
     73  OD1       -0.5820   51.2600   10.2290 O.2    35  ASN35      -0.2716
     74  ND2        1.6120   50.8350   10.4040 N.am   35  ASN35      -0.0877
     75  N         -1.2720   49.6860   15.0880 N.am   36  TRP36      -0.1976
     76  CA        -1.1940   48.9840   16.3690 C.3    36  TRP36       0.1640
     77  C         -2.5480   48.7880   17.0130 C.2    36  TRP36       0.2290
     78  O         -3.1060   49.7040   17.6140 O.2    36  TRP36      -0.2864
     79  CB        -0.2340   49.6930   17.3250 C.3    36  TRP36       0.0576
     80  CG         1.1890   49.5230   16.9130 C.ar   36  TRP36       0.0006
     81  CD1        1.9540   50.4070   16.2050 C.ar   36  TRP36       0.0946
     82  CD2        2.0120   48.3790   17.1510 C.ar   36  TRP36       0.0152
     83  NE1        3.2040   49.8800   15.9860 N.ar   36  TRP36      -0.2442
     84  CE2        3.2680   48.6370   16.5580 C.ar   36  TRP36       0.0810
     85  CE3        1.8110   47.1580   17.8110 C.ar   36  TRP36       0.0012
     86  CZ2        4.3240   47.7170   16.6050 C.ar   36  TRP36       0.0191
     87  CZ3        2.8580   46.2430   17.8590 C.ar   36  TRP36       0.0001
     88  CH2        4.1000   46.5290   17.2590 C.ar   36  TRP36       0.0015
     89  N         -1.0840   45.2570   22.6170 N.3    47  ILE47      -0.1245
     90  CA        -1.1570   45.6990   21.2260 C.3    47  ILE47       0.1561
     91  C         -0.3620   44.8110   20.2720 C.2    47  ILE47       0.2260
     92  O          0.6480   44.2150   20.6460 O.2    47  ILE47      -0.2867
     93  CB        -0.7260   47.1850   21.0570 C.3    47  ILE47       0.0252
     94  CG1        0.7060   47.3980   21.5510 C.3    47  ILE47       0.0019
     95  CG2       -1.7010   48.1070   21.7960 C.3    47  ILE47       0.0019
     96  CD1        1.2110   48.8060   21.3280 C.3    47  ILE47       0.0001
     97  N          0.6340   44.3110   15.7410 N.3    49  PRO49      -0.2102
     98  CA         0.6390   44.8810   14.3900 C.3    49  PRO49       0.1504
     99  C         -0.5430   44.3880   13.5670 C.2    49  PRO49       0.2576
    100  O         -0.7560   43.1780   13.4380 O.2    49  PRO49      -0.2718
    101  CB         1.9730   44.3960   13.8270 C.3    49  PRO49       0.0282
    102  CG         2.1700   43.0850   14.5220 C.3    49  PRO49       0.0208
    103  CD         1.7830   43.4090   15.9310 C.3    49  PRO49       0.0893
    104  N         -1.3040   45.3330   13.0180 N.am   50  SER50      -0.1938
    105  CA        -2.4900   45.0330   12.2160 C.3    50  SER50       0.2055
    106  C         -2.2060   44.2790   10.9210 C.2    50  SER50       0.2643
    107  O         -3.1110   43.6720   10.3450 O.2    50  SER50      -0.2714
    108  CB        -3.2600   46.3170   11.8960 C.3    50  SER50       0.2130
    109  OG        -2.5170   47.1680   11.0490 O.3    50  SER50      -0.2179
    110  N         -0.9610   44.3350   10.4540 N.am   51  ASN51      -0.1957
    111  CA        -0.5840   43.6420    9.2300 C.3    51  ASN51       0.1819
    112  C         -0.2110   42.1690    9.4710 C.2    51  ASN51       0.2621
    113  O          0.1490   41.4440    8.5380 O.2    51  ASN51      -0.2715
    114  CB         0.5330   44.3990    8.4920 C.3    51  ASN51       0.1195
    115  CG         1.7960   44.5530    9.3210 C.2    51  ASN51       0.2630
    116  OD1        1.7910   44.3630   10.5330 O.2    51  ASN51      -0.2716
    117  ND2        2.8900   44.9130    8.6610 N.am   51  ASN51      -0.0877
    118  N         -0.3310   41.7310   10.7240 N.am   52  TYR52      -0.1974
    119  CA        -0.0420   40.3520   11.1080 C.3    52  TYR52       0.1639
    120  C         -1.3150   39.5310   11.3260 C.2    52  TYR52       0.2290
    121  O         -1.2440   38.3710   11.7400 O.2    52  TYR52      -0.2864
    122  CB         0.8040   40.3210   12.3820 C.3    52  TYR52       0.0560
    123  CG         2.2920   40.4050   12.1290 C.ar   52  TYR52      -0.0198
    124  CD1        2.8410   41.4700   11.4110 C.ar   52  TYR52      -0.0009
    125  CD2        3.1510   39.4030   12.5820 C.ar   52  TYR52      -0.0009
    126  CE1        4.2040   41.5320   11.1470 C.ar   52  TYR52       0.0417
    127  CE2        4.5160   39.4560   12.3210 C.ar   52  TYR52       0.0417
    128  CZ         5.0340   40.5230   11.6020 C.ar   52  TYR52       0.1957
    129  OH         6.3800   40.5750   11.3310 O.3    52  TYR52      -0.2866
@<TRIPOS>BOND
     1    11     9   ar
     2    11    10   ar
     3     9     7   ar
     4    10     8   ar
     5     7     6   ar
     6   114   111    1
     7   114   115    1
     8   113   112    2
     9   117   115   am
    10     8     6   ar
    11     6     5    1
    12   111   112    1
    13   111   110    1
    14   115   116    2
    15   112   118   am
    16    73    72    2
    17   107   106    2
    18    74    72   am
    19   110   106   am
    20     5     2    1
    21   118   119    1
    22    72    71    1
    23   106   105    1
    24     1     2    1
    25   109   108    1
    26   119   120    1
    27   119   122    1
    28   126   124   ar
    29   126   128   ar
    30     2     3    1
    31   120   121    2
    32   129   128    1
    33   124   123   ar
    34   128   127   ar
    35   108   105    1
    36   123   122    1
    37   123   125   ar
    38   105   104    1
    39   127   125   ar
    40    71    68    1
    41    67    68    1
    42    68    69    1
    43     3    12   am
    44     3     4    2
    45   104    99   am
    46    12    13    1
    47   100    99    2
    48    99    98    1
    49   101    98    1
    50   101   102    1
    51    70    69    2
    52    69    75   am
    53    15    14    2
    54    98    97    1
    55    61    62    2
    56    61    60    1
    57    18    17   ar
    58   102   103    1
    59    13    16    1
    60    13    14    1
    61    16    17    1
    62    65    64   ar
    63    14    20   am
    64    17    19   ar
    65    75    76    1
    66    60    59    1
    67    60    63    1
    68    97   103    1
    69    64    66   ar
    70    64    63    1
    71    83    81   ar
    72    83    84   ar
    73    20    21    1
    74    81    80   ar
    75    76    77    1
    76    76    79    1
    77    24    21    1
    78    24    25    1
    79    21    22    1
    80    26    25   ar
    81    26    28   ar
    82    84    86   ar
    83    84    82   ar
    84    86    88   ar
    85    80    82   ar
    86    80    79    1
    87    77    78    2
    88    25    27   ar
    89    28    30   ar
    90    82    85   ar
    91    88    87   ar
    92    85    87   ar
    93    22    23    2
    94    27    29   ar
    95    30    29   ar
    96    57    56   ar
    97    58    56   ar
    98    91    92    2
    99    91    90    1
   100    56    55    1
   101    93    90    1
   102    93    94    1
   103    93    95    1
   104    90    89    1
   105    96    94    1
   106    55    54    1
   107    38    37   ar
   108    54    51    1
   109    31    32    1
   110    35    36    1
   111    35    32    1
   112    37    36    1
   113    37    39   ar
   114    51    52    1
   115    51    50    1
   116    52    53    2
   117    32    33    1
   118    50    48   am
   119    33    34    2
   120    33    40   am
   121    49    48    2
   122    48    47    1
   123    43    42    2
   124    40    41    1
   125    42    41    1
   126    42    46   am
   127    47    46    1
   128    41    44    1
   129    45    44    1
