@<TRIPOS>MOLECULE
tmp/2shkB00.pdb
 139 134 0 0 0
SMALL
GASTEIGER

@<TRIPOS>ATOM
      1  N         37.7920   20.7940   35.2920 N.3    10  ALA10      -0.1231
      2  CA        37.7530   21.9440   36.2010 C.3    10  ALA10       0.1694
      3  C         38.0990   23.2700   35.5230 C.2    10  ALA10       0.2592
      4  O         38.4760   23.3850   34.3740 O.2    10  ALA10      -0.2718
      5  CB        38.6200   21.6330   37.4040 C.3    10  ALA10       0.0304
      6  N         37.7320   24.3480   36.2210 N.am   11  ARG11      -0.1966
      7  CA        37.9810   25.7200   35.8220 C.3    11  ARG11       0.1729
      8  C         39.4250   25.8530   35.3370 C.2    11  ARG11       0.2617
      9  O         40.3760   25.4870   36.0420 O.2    11  ARG11      -0.2715
     10  CB        37.9450   26.5850   37.0890 C.3    11  ARG11       0.0348
     11  CG        36.8660   27.6300   37.2220 C.3    11  ARG11       0.0492
     12  CD        36.2690   27.4420   38.6420 C.3    11  ARG11       0.2205
     13  NE        36.9610   28.2640   39.6350 N.pl3  11  ARG11      -0.0865
     14  CZ        37.3770   27.9300   40.8570 C.cat  11  ARG11       0.5346
     15  NH1       37.1770   26.6850   41.3250 N.pl3  11  ARG11       0.1354
     16  NH2       37.9960   28.8460   41.6220 N.pl3  11  ARG11       0.1354
     17  N         39.6120   26.4250   34.1670 N.am   12  GLY12      -0.1940
     18  CA        40.9560   26.5890   33.6190 C.3    12  GLY12       0.2014
     19  C         41.3980   25.4500   32.7220 C.2    12  GLY12       0.2639
     20  O         42.3530   25.6000   31.9590 O.2    12  GLY12      -0.2714
     21  N         40.6900   24.3260   32.6980 N.am   13  CYS13      -0.1953
     22  CA        41.0370   23.2100   31.8440 C.3    13  CYS13       0.1843
     23  C         40.8030   23.5200   30.3580 C.2    13  CYS13       0.2626
     24  O         41.1930   22.7460   29.5200 O.2    13  CYS13      -0.2714
     25  CB        40.3230   21.9170   32.2410 C.3    13  CYS13       0.0997
     26  SG        38.6040   21.9470   31.6770 S.3    13  CYS13      -0.0797
     27  N         40.1980   24.5850   29.9180 N.am   14  GLY14      -0.1940
     28  CA        39.9340   24.9630   28.5700 C.3    14  GLY14       0.2014
     29  C         38.6530   24.4920   27.9060 C.2    14  GLY14       0.2639
     30  O         38.4440   24.7490   26.7320 O.2    14  GLY14      -0.2714
     31  N         37.6970   23.8980   28.5840 N.am   15  LYS15      -0.1963
     32  CA        36.4200   23.5660   28.0190 C.3    15  LYS15       0.1728
     33  C         35.8630   24.4980   26.9540 C.2    15  LYS15       0.2617
     34  O         35.4030   23.9950   25.9110 O.2    15  LYS15      -0.2715
     35  CB        35.3490   23.4970   29.1330 C.3    15  LYS15       0.0311
     36  CG        35.5340   22.1970   29.8840 C.3    15  LYS15       0.0038
     37  CD        34.6680   22.2690   31.1470 C.3    15  LYS15       0.0206
     38  CE        35.3980   23.1240   32.1770 C.3    15  LYS15       0.1093
     39  NZ        34.5570   23.3810   33.3400 N.3    15  LYS15      -0.1314
     40  N         35.7510   25.7820   27.1570 N.am   16  THR16      -0.1937
     41  CA        35.2080   26.6620   26.1150 C.3    16  THR16       0.2028
     42  C         36.0880   26.7630   24.8740 C.2    16  THR16       0.2643
     43  O         35.7000   26.5750   23.7240 O.2    16  THR16      -0.2714
     44  CB        34.9200   28.0500   26.7250 C.3    16  THR16       0.1808
     45  OG1       34.0490   27.9450   27.8530 O.3    16  THR16      -0.2208
     46  CG2       34.2880   28.9960   25.7360 C.3    16  THR16       0.0379
     47  N         37.3570   27.0240   25.0630 N.am   17  THR17      -0.1936
     48  CA        38.3730   27.2540   24.0540 C.3    17  THR17       0.2028
     49  C         38.5750   26.0720   23.1340 C.2    17  THR17       0.2642
     50  O         38.4890   26.1210   21.9130 O.2    17  THR17      -0.2714
     51  CB        39.6850   27.6350   24.7730 C.3    17  THR17       0.1808
     52  OG1       39.6660   29.0800   24.9690 O.3    17  THR17      -0.2208
     53  CG2       40.9450   27.3050   24.0120 C.3    17  THR17       0.0379
     54  N         38.8050   24.9600   23.8470 N.am   18  VAL18      -0.1977
     55  CA        38.9470   23.6660   23.1810 C.3    18  VAL18       0.1596
     56  C         37.5940   23.2520   22.6150 C.2    18  VAL18       0.2287
     57  O         37.6190   22.6990   21.5210 O.2    18  VAL18      -0.2864
     58  CB        39.4840   22.5760   24.0950 C.3    18  VAL18       0.0276
     59  CG1       39.4470   21.2110   23.4250 C.3    18  VAL18       0.0022
     60  CG2       40.8840   22.9430   24.5590 C.3    18  VAL18       0.0022
     61  N         30.8120   22.4430   29.5410 N.3    77  THR77      -0.1218
     62  CA        30.0360   22.5360   30.7970 C.3    77  THR77       0.1862
     63  C         30.8170   23.2850   31.8830 C.2    77  THR77       0.2287
     64  O         32.0480   23.3500   31.8460 O.2    77  THR77      -0.2866
     65  CB        29.7440   21.1110   31.3480 C.3    77  THR77       0.1770
     66  OG1       30.9600   20.3960   31.5100 O.3    77  THR77      -0.2211
     67  CG2       28.8430   20.2960   30.4180 C.3    77  THR77       0.0375
     68  N         48.8560   23.9020   36.8120 N.3   106  GLU106     -0.1245
     69  CA        48.4980   24.3990   35.4980 C.3   106  GLU106      0.1567
     70  C         47.1320   25.0650   35.4880 C.2   106  GLU106      0.2260
     71  O         46.9520   26.0980   34.8320 O.2   106  GLU106     -0.2867
     72  CB        48.5580   23.2770   34.4510 C.3   106  GLU106      0.0388
     73  CG        48.0170   23.7450   33.0840 C.3   106  GLU106      0.1160
     74  CD        48.9680   24.7670   32.4580 C.2   106  GLU106      0.3649
     75  OE1       50.1980   24.5700   32.6310 O.co2 106  GLU106     -0.2457
     76  OE2       48.4950   25.7410   31.8330 O.co2 106  GLU106     -0.2457
     77  N         46.5280   29.3200   34.8410 N.3   110  ARG110     -0.1245
     78  CA        45.4070   29.9110   34.1060 C.3   110  ARG110      0.1563
     79  C         44.4740   30.6120   35.1070 C.2   110  ARG110      0.2260
     80  O         43.7260   30.1300   35.9650 O.2   110  ARG110     -0.2867
     81  CB        44.6940   28.8440   33.2840 C.3   110  ARG110      0.0307
     82  CG        45.4350   28.2470   32.1000 C.3   110  ARG110      0.0489
     83  CD        44.9980   26.8340   31.8080 C.3   110  ARG110      0.2205
     84  NE        45.8830   25.9990   31.0250 N.pl3 110  ARG110     -0.0865
     85  CZ        45.5890   25.1070   30.0880 C.cat 110  ARG110      0.5346
     86  NH1       44.3220   24.8970   29.7720 N.pl3 110  ARG110      0.1354
     87  NH2       46.5060   24.4080   29.4450 N.pl3 110  ARG110      0.1354
     88  N         44.5870   34.3540   34.2880 N.3   112  GLN112     -0.1245
     89  CA        44.6600   35.4380   33.3360 C.3   112  GLN112      0.1566
     90  C         43.4650   35.4430   32.3870 C.2   112  GLN112      0.2260
     91  O         42.4570   36.0900   32.6660 O.2   112  GLN112     -0.2867
     92  CB        45.9820   35.2780   32.5820 C.3   112  GLN112      0.0367
     93  CG        46.1090   33.9660   31.8430 C.3   112  GLN112      0.0905
     94  CD        47.4740   33.7660   31.2120 C.2   112  GLN112      0.2608
     95  OE1       48.2830   34.6930   31.1330 O.2   112  GLN112     -0.2717
     96  NE2       47.7380   32.5500   30.7580 N.am  112  GLN112     -0.0878
     97  N         45.0870   18.2900   28.4620 N.3   143  ALA143     -0.1231
     98  CA        44.6710   19.6430   28.2370 C.3   143  ALA143      0.1694
     99  C         45.7860   20.6510   28.4770 C.2   143  ALA143      0.2593
    100  O         45.5920   21.8520   28.3530 O.2   143  ALA143     -0.2718
    101  CB        43.4500   20.0020   29.0830 C.3   143  ALA143      0.0304
    102  N         46.9890   20.1680   28.7640 N.am  144  THR144     -0.1939
    103  CA        48.1260   21.0980   28.8160 C.3   144  THR144      0.2028
    104  C         48.6140   21.3320   27.3940 C.2   144  THR144      0.2642
    105  O         49.1310   22.4150   27.2060 O.2   144  THR144     -0.2714
    106  CB        49.2410   20.6350   29.7060 C.3   144  THR144      0.1808
    107  OG1       49.9280   19.5030   29.1390 O.3   144  THR144     -0.2208
    108  CG2       48.6480   20.4420   31.0710 C.3   144  THR144      0.0379
    109  N         48.3320   20.4700   26.4280 N.am  145  GLN145     -0.1963
    110  CA        48.6490   20.7330   25.0440 C.3   145  GLN145      0.1718
    111  C         47.8270   21.9430   24.5830 C.2   145  GLN145      0.2458
    112  O         46.8320   22.2580   25.2000 O.2   145  GLN145     -0.2730
    113  CB        48.2550   19.5180   24.1830 C.3   145  GLN145      0.0407
    114  CG        48.9280   18.2000   24.4300 C.3   145  GLN145      0.0908
    115  CD        48.2960   17.0610   23.7090 C.2   145  GLN145      0.2608
    116  OE1       48.6230   16.6310   22.5960 O.2   145  GLN145     -0.2717
    117  NE2       47.2960   16.4670   24.3360 N.am  145  GLN145     -0.0878
    118  N         48.2570   22.6300   23.5410 N.am  146  PRO146     -0.2716
    119  CA        47.5410   23.7060   22.8960 C.3   146  PRO146      0.1521
    120  C         46.2370   23.1670   22.2990 C.2   146  PRO146      0.2440
    121  O         46.1930   21.9920   21.9270 O.2   146  PRO146     -0.2731
    122  CB        48.4320   24.1660   21.7310 C.3   146  PRO146      0.0310
    123  CG        49.7280   23.5100   21.9620 C.3   146  PRO146      0.0237
    124  CD        49.4940   22.2740   22.7670 C.3   146  PRO146      0.0939
    125  N         45.2540   24.0140   22.0820 N.am  147  PRO147     -0.2727
    126  CA        43.9470   23.5810   21.6980 C.3   147  PRO147      0.1402
    127  C         43.8730   22.7980   20.4200 C.2   147  PRO147      0.2269
    128  O         43.1630   21.7840   20.3120 O.2   147  PRO147     -0.2865
    129  CB        43.1180   24.8590   21.6700 C.3   147  PRO147      0.0296
    130  CG        43.8030   25.8010   22.5730 C.3   147  PRO147      0.0237
    131  CD        45.2760   25.4270   22.5300 C.3   147  PRO147      0.0939
    132  N         44.9330   19.3190   21.0090 N.3   150  ILE150     -0.1245
    133  CA        43.9280   18.5720   21.7310 C.3   150  ILE150      0.1561
    134  C         42.8900   18.1350   20.6910 C.2   150  ILE150      0.2260
    135  O         42.5790   16.9510   20.6490 O.2   150  ILE150     -0.2867
    136  CB        43.2750   19.4450   22.8240 C.3   150  ILE150      0.0252
    137  CG1       44.3650   19.8300   23.8200 C.3   150  ILE150      0.0019
    138  CG2       42.1250   18.6770   23.4430 C.3   150  ILE150      0.0019
    139  CD1       43.8750   20.7220   24.9520 C.3   150  ILE150      0.0001
@<TRIPOS>BOND
     1   128   127    2
     2   127   126    1
     3   135   134    2
     4   134   133    1
     5   132   133    1
     6    57    56    2
     7   129   126    1
     8   129   130    1
     9   126   125    1
    10   122   123    1
    11   122   119    1
    12   133   136    1
    13    50    49    2
    14   121   120    2
    15   123   124    1
    16   125   120   am
    17   125   131    1
    18   120   119    1
    19   131   130    1
    20   116   115    2
    21    56    55    1
    22   124   118    1
    23   136   138    1
    24   136   137    1
    25   119   118    1
    26    49    54   am
    27    49    48    1
    28    55    54    1
    29    55    58    1
    30    59    58    1
    31   118   111   am
    32   115   117   am
    33   115   114    1
    34    43    42    2
    35   137   139    1
    36    53    51    1
    37    48    51    1
    38    48    47    1
    39    58    60    1
    40   113   114    1
    41   113   110    1
    42   111   110    1
    43   111   112    2
    44    51    52    1
    45    42    47   am
    46    42    41    1
    47   110   109    1
    48    46    44    1
    49    34    33    2
    50    41    44    1
    51    41    40    1
    52   109   104   am
    53    44    45    1
    54    30    29    2
    55    33    40   am
    56    33    32    1
    57   105   104    2
    58   104   103    1
    59    29    28    1
    60    29    31   am
    61    32    31    1
    62    32    35    1
    63    98    97    1
    64    98    99    1
    65    98   101    1
    66   100    99    2
    67    99   102   am
    68    28    27    1
    69   102   103    1
    70   103   106    1
    71    35    36    1
    72   107   106    1
    73    87    85    1
    74    24    23    2
    75    61    62    1
    76   106   108    1
    77    86    85    1
    78    36    37    1
    79    27    23   am
    80    85    84    2
    81    23    22    1
    82    67    65    1
    83    96    94   am
    84    62    65    1
    85    62    63    1
    86    84    83    1
    87    95    94    2
    88    37    38    1
    89    94    93    1
    90    65    66    1
    91    26    25    1
    92    83    82    1
    93    76    74   ar
    94    93    92    1
    95    22    25    1
    96    22    21    1
    97    64    63    2
    98    20    19    2
    99    82    81    1
   100    38    39    1
   101    90    91    2
   102    90    89    1
   103    74    75   ar
   104    74    73    1
   105    92    89    1
   106    21    19   am
   107    19    18    1
   108    73    72    1
   109    81    78    1
   110    89    88    1
   111    18    17    1
   112    78    77    1
   113    78    79    1
   114    17     8   am
   115     4     3    2
   116    72    69    1
   117    71    70    2
   118    79    80    2
   119     1     2    1
   120     8     7    1
   121     8     9    2
   122    70    69    1
   123    69    68    1
   124     3     2    1
   125     3     6   am
   126     7     6    1
   127     7    10    1
   128     2     5    1
   129    10    11    1
   130    11    12    1
   131    12    13    1
   132    13    14    2
   133    14    15    1
   134    14    16    1
