@<TRIPOS>MOLECULE
tmp/2shpA00.pdb
 130 126 0 0 0
SMALL
GASTEIGER

@<TRIPOS>ATOM
      1  N         24.5470  -19.9260   41.5880 N.3   322  THR322     -0.1218
      2  CA        23.4540  -19.9590   40.6020 C.3   322  THR322      0.1862
      3  C         22.0840  -19.7120   41.2250 C.2   322  THR322      0.2287
      4  O         21.0610  -20.2370   40.7810 O.2   322  THR322     -0.2866
      5  CB        23.4250  -21.3150   39.8500 C.3   322  THR322      0.1770
      6  OG1       23.2770  -22.3770   40.7930 O.3   322  THR322     -0.2211
      7  CG2       24.7280  -21.5340   39.0740 C.3   322  THR322      0.0375
      8  N         25.5630  -15.5350   39.6120 N.3   386  PHE386     -0.1241
      9  CA        24.4630  -15.4750   38.6520 C.3   386  PHE386      0.1605
     10  C         23.1410  -15.2230   39.3640 C.2   386  PHE386      0.2264
     11  O         22.7150  -16.0100   40.2060 O.2   386  PHE386     -0.2867
     12  CB        24.3770  -16.7790   37.8470 C.3   386  PHE386      0.0534
     13  CG        23.5790  -16.6570   36.5700 C.ar  386  PHE386     -0.0203
     14  CD1       24.1870  -16.2350   35.3940 C.ar  386  PHE386     -0.0042
     15  CD2       22.2170  -16.9730   36.5460 C.ar  386  PHE386     -0.0042
     16  CE1       23.4540  -16.1310   34.2060 C.ar  386  PHE386     -0.0003
     17  CE2       21.4790  -16.8710   35.3660 C.ar  386  PHE386     -0.0003
     18  CZ        22.1040  -16.4480   34.1950 C.ar  386  PHE386     -0.0000
     19  N         18.5270  -16.5280   37.3190 N.3   389  TRP389     -0.1241
     20  CA        17.8340  -17.7960   37.1240 C.3   389  TRP389      0.1605
     21  C         16.3780  -17.6160   37.5810 C.2   389  TRP389      0.2264
     22  O         16.1250  -17.0010   38.6190 O.2   389  TRP389     -0.2867
     23  CB        18.5270  -18.9230   37.9050 C.3   389  TRP389      0.0550
     24  CG        18.2150  -20.3070   37.3780 C.ar  389  TRP389      0.0003
     25  CD1       16.9780  -20.8910   37.2770 C.ar  389  TRP389      0.0946
     26  CD2       19.1540  -21.2710   36.8860 C.ar  389  TRP389      0.0152
     27  NE1       17.0910  -22.1520   36.7460 N.ar  389  TRP389     -0.2442
     28  CE2       18.4150  -22.4180   36.5060 C.ar  389  TRP389      0.0810
     29  CE3       20.5500  -21.2880   36.7490 C.ar  389  TRP389      0.0012
     30  CZ2       19.0250  -23.5700   36.0080 C.ar  389  TRP389      0.0191
     31  CZ3       21.1560  -22.4350   36.2600 C.ar  389  TRP389      0.0001
     32  CH2       20.3930  -23.5640   35.8970 C.ar  389  TRP389      0.0015
     33  N         14.0210  -22.9960   33.6440 N.3   394  VAL394     -0.1231
     34  CA        15.3840  -22.5770   33.3620 C.3   394  VAL394      0.1678
     35  C         15.4190  -21.2840   32.5190 C.2   394  VAL394      0.2434
     36  O         14.3880  -20.8530   32.0020 O.2   394  VAL394     -0.2733
     37  CB        16.1600  -23.7160   32.6490 C.3   394  VAL394      0.0265
     38  CG1       16.2520  -24.9300   33.5580 C.3   394  VAL394      0.0020
     39  CG2       15.4850  -24.0740   31.3310 C.3   394  VAL394      0.0020
     40  N         16.5830  -20.6010   32.4550 N.am  395  PRO395     -0.2718
     41  CA        16.7980  -19.4720   31.5340 C.3   395  PRO395      0.1535
     42  C         16.2950  -19.7340   30.1060 C.2   395  PRO395      0.2599
     43  O         16.4540  -20.8340   29.5720 O.2   395  PRO395     -0.2715
     44  CB        18.3080  -19.2790   31.5630 C.3   395  PRO395      0.0310
     45  CG        18.6970  -19.7170   32.9300 C.3   395  PRO395      0.0237
     46  CD        17.7640  -20.8340   33.3070 C.3   395  PRO395      0.0939
     47  N         15.6790  -18.7260   29.4950 N.am  396  SER396     -0.1950
     48  CA        15.1440  -18.8780   28.1370 C.3   396  SER396      0.1924
     49  C         15.9600  -18.1700   27.0470 C.2   396  SER396      0.2314
     50  O         15.5950  -18.1970   25.8780 O.2   396  SER396     -0.2863
     51  CB        13.6860  -18.4050   28.0900 C.3   396  SER396      0.2116
     52  OG        13.5450  -17.1200   28.6760 O.3   396  SER396     -0.2180
     53  N         19.7570  -18.3610   25.5260 N.3   398  PRO398     -0.2116
     54  CA        21.0580  -19.0320   25.6200 C.3   398  PRO398      0.1372
     55  C         22.2240  -18.0540   25.5040 C.2   398  PRO398      0.2244
     56  O         23.3380  -18.3540   25.9230 O.2   398  PRO398     -0.2868
     57  CB        21.0370  -20.0400   24.4620 C.3   398  PRO398      0.0268
     58  CG        19.7360  -19.8010   23.7060 C.3   398  PRO398      0.0207
     59  CD        19.1620  -18.5030   24.1870 C.3   398  PRO398      0.0892
     60  N         23.4130  -16.8330   29.1040 N.3   401  VAL401     -0.1245
     61  CA        23.9070  -18.0290   29.7790 C.3   401  VAL401      0.1561
     62  C         25.2880  -18.4230   29.2590 C.2   401  VAL401      0.2260
     63  O         26.2030  -18.7250   30.0330 O.2   401  VAL401     -0.2867
     64  CB        22.9380  -19.2120   29.5670 C.3   401  VAL401      0.0252
     65  CG1       23.5440  -20.4970   30.1300 C.3   401  VAL401      0.0019
     66  CG2       21.5850  -18.9110   30.2150 C.3   401  VAL401      0.0019
     67  N         27.9870  -15.7000   30.1670 N.3   404  PHE404     -0.1227
     68  CA        28.4040  -15.9640   31.5460 C.3   404  PHE404      0.1736
     69  C         29.3260  -17.1740   31.6320 C.2   404  PHE404      0.2595
     70  O         30.4370  -17.0810   32.1400 O.2   404  PHE404     -0.2718
     71  CB        27.1720  -16.1870   32.4310 C.3   404  PHE404      0.0547
     72  CG        27.4930  -16.5980   33.8450 C.ar  404  PHE404     -0.0202
     73  CD1       27.9560  -15.6640   34.7660 C.ar  404  PHE404     -0.0042
     74  CD2       27.2770  -17.9100   34.2680 C.ar  404  PHE404     -0.0042
     75  CE1       28.1950  -16.0300   36.0870 C.ar  404  PHE404     -0.0003
     76  CE2       27.5130  -18.3000   35.5970 C.ar  404  PHE404     -0.0003
     77  CZ        27.9710  -17.3630   36.5040 C.ar  404  PHE404     -0.0000
     78  N         28.9080  -18.2770   31.0300 N.am  405  LEU405     -0.1980
     79  CA        29.7110  -19.4960   31.0180 C.3   405  LEU405      0.1596
     80  C         31.1110  -19.3140   30.4010 C.2   405  LEU405      0.2287
     81  O         32.1240  -19.7410   30.9730 O.2   405  LEU405     -0.2864
     82  CB        28.9440  -20.5850   30.2810 C.3   405  LEU405      0.0297
     83  CG        29.4450  -22.0150   30.4390 C.3   405  LEU405      0.0022
     84  CD1       28.2670  -22.9320   30.6580 C.3   405  LEU405      0.0001
     85  CD2       30.2170  -22.4270   29.1870 C.3   405  LEU405      0.0001
     86  N         23.2710  -29.0200   36.2920 N.3   434  THR434     -0.1203
     87  CA        22.9950  -28.4860   34.9460 C.3   434  THR434      0.1994
     88  C         24.1090  -27.5860   34.3890 C.2   434  THR434      0.2617
     89  O         24.6640  -27.8650   33.3290 O.2   434  THR434     -0.2717
     90  CB        21.6700  -27.7040   34.9340 C.3   434  THR434      0.1784
     91  OG1       20.6180  -28.5700   35.3600 O.3   434  THR434     -0.2211
     92  CG2       21.3420  -27.2010   33.5330 C.3   434  THR434      0.0376
     93  N         24.5390  -26.6030   35.1770 N.am  435  PHE435     -0.1975
     94  CA        25.7150  -25.8160   34.8210 C.3   435  PHE435      0.1639
     95  C         26.9290  -26.6950   34.5370 C.2   435  PHE435      0.2290
     96  O         27.5210  -26.6210   33.4620 O.2   435  PHE435     -0.2864
     97  CB        26.0510  -24.8120   35.9350 C.3   435  PHE435      0.0560
     98  CG        27.2170  -23.9200   35.6150 C.ar  435  PHE435     -0.0200
     99  CD1       27.0420  -22.7730   34.8330 C.ar  435  PHE435     -0.0042
    100  CD2       28.5020  -24.2940   35.9680 C.ar  435  PHE435     -0.0042
    101  CE1       28.1310  -22.0270   34.3940 C.ar  435  PHE435     -0.0003
    102  CE2       29.6050  -23.5510   35.5320 C.ar  435  PHE435     -0.0003
    103  CZ        29.4190  -22.4140   34.7370 C.ar  435  PHE435     -0.0000
    104  N         26.6650  -28.8900   31.2070 N.3   438  ILE438     -0.1245
    105  CA        26.8410  -27.9690   30.0740 C.3   438  ILE438      0.1561
    106  C         28.3000  -27.5440   29.8960 C.2   438  ILE438      0.2260
    107  O         28.8660  -27.6530   28.7980 O.2   438  ILE438     -0.2867
    108  CB        25.9870  -26.6940   30.2440 C.3   438  ILE438      0.0252
    109  CG1       24.5090  -27.0390   30.1530 C.3   438  ILE438      0.0019
    110  CG2       26.3340  -25.6790   29.1600 C.3   438  ILE438      0.0019
    111  CD1       23.5950  -25.8760   30.4340 C.3   438  ILE438      0.0001
    112  N         17.4340  -28.1890   28.4360 N.3   479  SER479     -0.1217
    113  CA        18.2500  -26.9670   28.4720 C.3   479  SER479      0.1889
    114  C         19.7270  -27.2160   28.1540 C.2   479  SER479      0.2288
    115  O         20.3780  -26.3960   27.5030 O.2   479  SER479     -0.2866
    116  CB        18.1200  -26.2660   29.8410 C.3   479  SER479      0.2089
    117  OG        19.1860  -26.5970   30.7210 O.3   479  SER479     -0.2183
    118  N         19.8150  -27.4690   24.3460 N.3   482  MET482     -0.1230
    119  CA        19.6760  -26.0990   23.8470 C.3   482  MET482      0.1702
    120  C         20.9460  -25.2530   23.9990 C.2   482  MET482      0.2592
    121  O         21.3190  -24.5140   23.0860 O.2   482  MET482     -0.2718
    122  CB        18.5170  -25.3940   24.5460 C.3   482  MET482      0.0401
    123  CG        17.1680  -26.0860   24.3850 C.3   482  MET482      0.0596
    124  SD        16.6750  -26.3790   22.6510 S.3   482  MET482     -0.1393
    125  CE        14.8780  -26.4080   22.8460 C.3   482  MET482      0.0692
    126  N         21.6110  -25.3590   25.1450 N.am  483  ALA483     -0.1980
    127  CA        22.8310  -24.5940   25.3910 C.3   483  ALA483      0.1597
    128  C         23.9680  -25.0150   24.4610 C.2   483  ALA483      0.2287
    129  O         24.6390  -24.1750   23.8720 O.2   483  ALA483     -0.2864
    130  CB        23.2640  -24.7300   26.8600 C.3   483  ALA483      0.0319
@<TRIPOS>BOND
     1   124   125    1
     2   124   123    1
     3   121   120    2
     4    58    59    1
     5    58    57    1
     6   119   120    1
     7   119   118    1
     8   119   122    1
     9   129   128    2
    10   120   126   am
    11    59    53    1
    12   123   122    1
    13   128   127    1
    14    57    54    1
    15   126   127    1
    16   127   130    1
    17    55    54    1
    18    55    56    2
    19    53    54    1
    20    50    49    2
    21    49    48    1
    22   115   114    2
    23    51    48    1
    24    51    52    1
    25    48    47    1
    26   114   113    1
    27   112   113    1
    28   113   116    1
    29   107   106    2
    30    60    61    1
    31   110   108    1
    32    85    83    1
    33    62    61    1
    34    62    63    2
    35    47    42   am
    36    64    61    1
    37    64    65    1
    38    64    66    1
    39    43    42    2
    40   116   117    1
    41   106   105    1
    42   105   108    1
    43   105   104    1
    44    42    41    1
    45   109   108    1
    46   109   111    1
    47    67    68    1
    48    82    83    1
    49    82    79    1
    50    80    81    2
    51    80    79    1
    52    83    84    1
    53    79    78    1
    54    78    69   am
    55    39    37    1
    56    41    44    1
    57    41    40    1
    58    68    69    1
    59    68    71    1
    60    44    45    1
    61    69    70    2
    62    36    35    2
    63    71    72    1
    64    40    35   am
    65    40    46    1
    66    35    34    1
    67    37    34    1
    68    37    38    1
    69    45    46    1
    70    89    88    2
    71    34    33    1
    72    96    95    2
    73    92    90    1
    74    72    74   ar
    75    72    73   ar
    76    18    16   ar
    77    18    17   ar
    78    16    14   ar
    79    74    76   ar
    80    88    87    1
    81    88    93   am
    82   101   103   ar
    83   101    99   ar
    84    95    94    1
    85   103   102   ar
    86    73    75   ar
    87    94    93    1
    88    94    97    1
    89    99    98   ar
    90    90    87    1
    91    90    91    1
    92    87    86    1
    93    17    15   ar
    94    14    13   ar
    95   102   100   ar
    96    76    77   ar
    97    98    97    1
    98    98   100   ar
    99    32    30   ar
   100    32    31   ar
   101    30    28   ar
   102    75    77   ar
   103    31    29   ar
   104    28    27   ar
   105    28    26   ar
   106    15    13   ar
   107    13    12    1
   108    27    25   ar
   109    29    26   ar
   110    26    24   ar
   111    20    19    1
   112    20    21    1
   113    20    23    1
   114    25    24   ar
   115    24    23    1
   116    21    22    2
   117    12     9    1
   118     9    10    1
   119     9     8    1
   120     7     5    1
   121    10    11    2
   122     5     2    1
   123     5     6    1
   124     2     3    1
   125     2     1    1
   126     4     3    2
