@<TRIPOS>MOLECULE
tmp/2simA00.pdb
 196 187 0 0 0
SMALL
GASTEIGER

@<TRIPOS>ATOM
      1  N         32.7520   51.3160   46.3210 N.3    36  ARG36      -0.1231
      2  CA        34.0420   50.7850   45.9290 C.3    36  ARG36       0.1694
      3  C         34.2100   49.3560   46.4630 C.2    36  ARG36       0.2591
      4  O         33.4600   48.8950   47.3100 O.2    36  ARG36      -0.2718
      5  CB        35.1430   51.6360   46.5010 C.3    36  ARG36       0.0321
      6  CG        35.3330   53.0580   45.9370 C.3    36  ARG36       0.0489
      7  CD        36.3100   52.9390   44.7900 C.3    36  ARG36       0.2205
      8  NE        37.6240   53.1060   45.2870 N.pl3  36  ARG36      -0.0865
      9  CZ        38.8040   52.5730   44.9710 C.cat  36  ARG36       0.5346
     10  NH1       39.1240   51.6630   44.0630 N.pl3  36  ARG36       0.1354
     11  NH2       39.7610   53.1480   45.6930 N.pl3  36  ARG36       0.1354
     12  N         35.2180   48.6720   45.9100 N.am   37  ILE37      -0.1980
     13  CA        35.7780   47.3890   46.3290 C.3    37  ILE37       0.1595
     14  C         34.7370   46.2570   46.3290 C.2    37  ILE37       0.2287
     15  O         34.3080   45.7590   47.3670 O.2    37  ILE37      -0.2864
     16  CB        36.4360   47.5480   47.7470 C.3    37  ILE37       0.0276
     17  CG1       37.1530   48.8890   48.0030 C.3    37  ILE37       0.0022
     18  CG2       37.4370   46.4170   47.8610 C.3    37  ILE37       0.0022
     19  CD1       38.3010   49.3190   47.0730 C.3    37  ILE37       0.0001
     20  N         30.4420   54.0700   50.5530 N.3    55  ARG55      -0.1245
     21  CA        31.2250   55.2160   51.0290 C.3    55  ARG55       0.1563
     22  C         30.2410   56.3880   50.9520 C.2    55  ARG55       0.2260
     23  O         30.0660   57.0680   49.9560 O.2    55  ARG55      -0.2867
     24  CB        32.4670   55.4030   50.1030 C.3    55  ARG55       0.0307
     25  CG        33.3180   54.1410   50.0750 C.3    55  ARG55       0.0489
     26  CD        34.7470   54.4070   49.5660 C.3    55  ARG55       0.2205
     27  NE        35.6510   53.2970   49.8540 N.pl3  55  ARG55      -0.0865
     28  CZ        36.9950   53.3400   49.7190 C.cat  55  ARG55       0.5346
     29  NH1       37.6110   54.4410   49.3090 N.pl3  55  ARG55       0.1354
     30  NH2       37.7220   52.2170   49.9460 N.pl3  55  ARG55       0.1354
     31  N         39.2690   56.7930   50.9560 N.3    61  ASP61      -0.1225
     32  CA        39.4950   55.6410   51.8090 C.3    61  ASP61       0.1805
     33  C         39.2720   56.0120   53.2680 C.2    61  ASP61       0.2597
     34  O         38.7130   55.2070   54.0120 O.2    61  ASP61      -0.2718
     35  CB        40.9270   55.1180   51.6420 C.3    61  ASP61       0.1424
     36  CG        41.2390   54.4920   50.2680 C.2    61  ASP61       0.3668
     37  OD1       40.3210   54.0640   49.5660 O.co2  61  ASP61      -0.2456
     38  OD2       42.4030   54.4160   49.8940 O.co2  61  ASP61      -0.2456
     39  N         39.7000   57.2070   53.7130 N.am   62  GLN62      -0.1979
     40  CA        39.5010   57.5590   55.1180 C.3    62  GLN62       0.1601
     41  C         38.2060   58.3640   55.1990 C.2    62  GLN62       0.2287
     42  O         38.1890   59.5910   55.0690 O.2    62  GLN62      -0.2864
     43  CB        40.7040   58.3740   55.6260 C.3    62  GLN62       0.0394
     44  CG        41.9300   57.5180   55.9040 C.3    62  GLN62       0.0908
     45  CD        42.6500   57.0810   54.6380 C.2    62  GLN62       0.2608
     46  OE1       43.0120   57.8840   53.7710 O.2    62  GLN62      -0.2717
     47  NE2       42.9140   55.8080   54.4650 N.am   62  GLN62      -0.0878
     48  N         35.8270   48.3520   55.8140 N.3    98  MET98      -0.1230
     49  CA        36.1720   48.4270   54.3950 C.3    98  MET98       0.1702
     50  C         36.9460   47.2400   53.8320 C.2    98  MET98       0.2592
     51  O         37.4910   46.4150   54.5650 O.2    98  MET98      -0.2718
     52  CB        36.9720   49.7260   54.1240 C.3    98  MET98       0.0401
     53  CG        38.2250   49.8370   54.9410 C.3    98  MET98       0.0596
     54  SD        39.0310   51.4860   54.8810 S.3    98  MET98      -0.1393
     55  CE        39.2970   51.7780   53.1340 C.3    98  MET98       0.0692
     56  N         36.9020   47.1990   52.4960 N.am   99  ASP99      -0.1974
     57  CA        37.6470   46.2680   51.6640 C.3    99  ASP99       0.1709
     58  C         37.2910   44.8040   51.8500 C.2    99  ASP99       0.2293
     59  O         38.0620   44.0410   52.4420 O.2    99  ASP99      -0.2864
     60  CB        39.1410   46.4680   51.9150 C.3    99  ASP99       0.1436
     61  CG        39.7320   47.7100   51.2640 C.2    99  ASP99       0.3671
     62  OD1       39.0030   48.6040   50.8400 O.co2  99  ASP99      -0.2456
     63  OD2       40.9530   47.7490   51.1730 O.co2  99  ASP99      -0.2456
     64  N         38.2710   50.4900   61.2430 N.3   120  TRP120     -0.1241
     65  CA        38.9950   51.6050   61.8280 C.3   120  TRP120      0.1605
     66  C         37.9900   52.6530   62.3170 C.2   120  TRP120      0.2264
     67  O         36.8220   52.6700   61.8950 O.2   120  TRP120     -0.2867
     68  CB        39.9190   52.2660   60.8130 C.3   120  TRP120      0.0550
     69  CG        41.1220   51.4280   60.4140 C.ar  120  TRP120      0.0003
     70  CD1       42.3000   51.5640   61.0730 C.ar  120  TRP120      0.0946
     71  CD2       41.2140   50.5470   59.3540 C.ar  120  TRP120      0.0152
     72  NE1       43.1550   50.7900   60.4310 N.ar  120  TRP120     -0.2442
     73  CE2       42.5460   50.1620   59.4040 C.ar  120  TRP120      0.0810
     74  CE3       40.3830   50.0370   58.3710 C.ar  120  TRP120      0.0012
     75  CZ2       43.0780   49.2700   58.4820 C.ar  120  TRP120      0.0191
     76  CZ3       40.9160   49.1410   57.4400 C.ar  120  TRP120      0.0001
     77  CH2       42.2540   48.7670   57.4960 C.ar  120  TRP120      0.0015
     78  N         46.2410   56.7770   55.6960 N.3   126  THR126     -0.1203
     79  CA        46.1700   55.4670   55.0670 C.3   126  THR126      0.1994
     80  C         46.7760   54.4330   56.0330 C.2   126  THR126      0.2618
     81  O         47.7440   54.6970   56.7900 O.2   126  THR126     -0.2717
     82  CB        46.9010   55.5400   53.6920 C.3   126  THR126      0.1784
     83  OG1       46.5210   54.3360   53.0320 O.3   126  THR126     -0.2211
     84  CG2       48.4210   55.6100   53.7300 C.3   126  THR126      0.0376
     85  N         46.2250   53.2190   56.0060 N.am  127  TRP127     -0.1961
     86  CA        46.6120   52.2270   57.0050 C.3   127  TRP127      0.1771
     87  C         48.1110   51.9110   57.0030 C.2   127  TRP127      0.2620
     88  O         48.7150   51.5620   58.0270 O.2   127  TRP127     -0.2715
     89  CB        45.7420   50.9510   56.7910 C.3   127  TRP127      0.0590
     90  CG        46.0660   50.0350   55.5980 C.ar  127  TRP127      0.0006
     91  CD1       46.1320   50.4920   54.2970 C.ar  127  TRP127      0.0946
     92  CD2       46.2990   48.6820   55.6960 C.ar  127  TRP127      0.0152
     93  NE1       46.4020   49.4140   53.5730 N.ar  127  TRP127     -0.2442
     94  CE2       46.5100   48.3240   54.3610 C.ar  127  TRP127      0.0810
     95  CE3       46.3530   47.7320   56.7180 C.ar  127  TRP127      0.0012
     96  CZ2       46.7880   47.0060   54.0230 C.ar  127  TRP127      0.0191
     97  CZ3       46.6250   46.4140   56.3760 C.ar  127  TRP127      0.0001
     98  CH2       46.8400   46.0600   55.0410 C.ar  127  TRP127      0.0015
     99  N         48.8050   52.1130   55.8720 N.am  128  GLY128     -0.1954
    100  CA        50.2310   51.8190   55.7860 C.3   128  GLY128      0.1869
    101  C         51.0450   52.7790   56.6390 C.2   128  GLY128      0.2309
    102  O         52.2250   52.5370   56.8760 O.2   128  GLY128     -0.2863
    103  N         44.6430   42.7400   56.7130 N.3   174  LEU174     -0.1245
    104  CA        43.4410   42.9240   55.9210 C.3   174  LEU174      0.1561
    105  C         43.3060   41.7560   54.9500 C.2   174  LEU174      0.2260
    106  O         44.3280   41.2180   54.5570 O.2   174  LEU174     -0.2867
    107  CB        43.5660   44.1830   55.1000 C.3   174  LEU174      0.0270
    108  CG        42.4510   45.1600   54.9590 C.3   174  LEU174      0.0019
    109  CD1       42.8710   46.1710   53.8820 C.3   174  LEU174      0.0001
    110  CD2       41.1520   44.4530   54.6840 C.3   174  LEU174      0.0001
    111  N         46.8200   40.5250   53.4910 N.3   193  GLN193     -0.1245
    112  CA        47.8680   41.5110   53.3070 C.3   193  GLN193      0.1566
    113  C         48.2240   42.0200   54.7080 C.2   193  GLN193      0.2260
    114  O         47.3300   42.0920   55.5620 O.2   193  GLN193     -0.2867
    115  CB        47.4480   42.7410   52.5160 C.3   193  GLN193      0.0367
    116  CG        46.1150   42.7420   51.8710 C.3   193  GLN193      0.0905
    117  CD        45.7020   44.0970   51.3270 C.2   193  GLN193      0.2608
    118  OE1       44.5140   44.3810   51.1430 O.2   193  GLN193     -0.2717
    119  NE2       46.6160   44.9740   51.0040 N.am  193  GLN193     -0.0878
    120  N         55.2650   45.8220   53.9100 N.3   204  LEU204     -0.1245
    121  CA        54.0840   45.0470   53.5590 C.3   204  LEU204      0.1561
    122  C         54.4850   43.6480   53.2350 C.2   204  LEU204      0.2260
    123  O         55.5830   43.4290   52.6820 O.2   204  LEU204     -0.2867
    124  CB        53.3570   45.5290   52.2810 C.3   204  LEU204      0.0270
    125  CG        52.5380   46.8150   52.0650 C.3   204  LEU204      0.0019
    126  CD1       51.5280   46.9680   53.1770 C.3   204  LEU204      0.0001
    127  CD2       53.4820   48.0100   51.9390 C.3   204  LEU204      0.0001
    128  N         52.2300   45.3800   45.9670 N.3   228  GLY228     -0.1210
    129  CA        51.0730   46.2080   46.1990 C.3   228  GLY228      0.1956
    130  C         50.0490   45.4880   47.0720 C.2   228  GLY228      0.2613
    131  O         48.8800   45.9030   47.1170 O.2   228  GLY228     -0.2717
    132  N         50.4990   44.4220   47.7340 N.am  229  SER229     -0.1938
    133  CA        49.8450   43.5270   48.6770 C.3   229  SER229      0.2055
    134  C         48.4410   42.9900   48.4530 C.2   229  SER229      0.2642
    135  O         48.1910   41.8860   48.9290 O.2   229  SER229     -0.2714
    136  CB        49.9020   44.1480   50.0610 C.3   229  SER229      0.2130
    137  OG        49.1700   45.3600   50.1860 O.3   229  SER229     -0.2179
    138  N         47.4940   43.6390   47.7580 N.am  230  GLU230     -0.1976
    139  CA        46.1950   43.0240   47.4970 C.3   230  GLU230      0.1602
    140  C         46.5110   41.8210   46.6180 C.2   230  GLU230      0.2287
    141  O         47.3490   41.9150   45.6990 O.2   230  GLU230     -0.2864
    142  CB        45.3010   44.0230   46.7700 C.3   230  GLU230      0.0415
    143  CG        44.9560   45.1980   47.6740 C.3   230  GLU230      0.1163
    144  CD        44.3840   46.4200   46.9280 C.2   230  GLU230      0.3649
    145  OE1       44.7950   46.6450   45.7880 O.co2 230  GLU230     -0.2457
    146  OE2       43.5520   47.1470   47.4880 O.co2 230  GLU230     -0.2457
    147  N         49.0040   42.3680   43.3030 N.3   245  ARG245     -0.1245
    148  CA        49.0260   43.7060   42.7510 C.3   245  ARG245      0.1563
    149  C         50.4680   44.2310   42.8310 C.2   245  ARG245      0.2260
    150  O         51.1710   44.0070   43.8300 O.2   245  ARG245     -0.2867
    151  CB        48.0670   44.6460   43.5650 C.3   245  ARG245      0.0307
    152  CG        48.3510   46.1320   43.3410 C.3   245  ARG245      0.0489
    153  CD        47.3950   47.0010   44.1130 C.3   245  ARG245      0.2205
    154  NE        47.6990   48.4210   43.8740 N.pl3 245  ARG245     -0.0865
    155  CZ        46.9180   49.4170   44.2790 C.cat 245  ARG245      0.5346
    156  NH1       45.7880   49.2160   44.9410 N.pl3 245  ARG245      0.1354
    157  NH2       47.2920   50.6550   44.0070 N.pl3 245  ARG245      0.1354
    158  N         45.8240   56.7630   37.8050 N.3   306  TYR306     -0.1241
    159  CA        44.7350   56.2760   38.6220 C.3   306  TYR306      0.1605
    160  C         43.3980   56.0490   37.9210 C.2   306  TYR306      0.2264
    161  O         42.4300   55.6190   38.5700 O.2   306  TYR306     -0.2867
    162  CB        44.5240   57.2360   39.7780 C.3   306  TYR306      0.0534
    163  CG        45.4820   56.9110   40.9140 C.ar  306  TYR306     -0.0201
    164  CD1       45.4790   55.6270   41.4320 C.ar  306  TYR306     -0.0009
    165  CD2       46.3260   57.8830   41.4290 C.ar  306  TYR306     -0.0009
    166  CE1       46.3140   55.2920   42.4760 C.ar  306  TYR306      0.0417
    167  CE2       47.1570   57.5510   42.4750 C.ar  306  TYR306      0.0417
    168  CZ        47.1480   56.2600   42.9800 C.ar  306  TYR306      0.1957
    169  OH        48.0420   55.8670   43.9630 O.3   306  TYR306     -0.2866
    170  N         42.8530   53.8270   35.5990 N.3   308  ARG308     -0.1245
    171  CA        42.7120   52.3740   35.4930 C.3   308  ARG308      0.1563
    172  C         41.6400   51.9120   34.4820 C.2   308  ARG308      0.2260
    173  O         40.6390   51.2520   34.8160 O.2   308  ARG308     -0.2867
    174  CB        42.3810   51.8130   36.9030 C.3   308  ARG308      0.0307
    175  CG        43.5860   51.9160   37.8040 C.3   308  ARG308      0.0489
    176  CD        43.1180   52.0560   39.2320 C.3   308  ARG308      0.2205
    177  NE        44.1840   51.8210   40.1820 N.pl3 308  ARG308     -0.0865
    178  CZ        43.9650   51.8220   41.5010 C.cat 308  ARG308      0.5346
    179  NH1       42.7580   52.0370   42.0110 N.pl3 308  ARG308      0.1354
    180  NH2       44.9730   51.5770   42.3130 N.pl3 308  ARG308      0.1354
    181  N         38.5740   56.6630   42.4130 N.3   338  GLY338     -0.1225
    182  CA        38.6040   55.2780   42.8820 C.3   338  GLY338      0.1811
    183  C         37.9930   54.4510   41.7750 C.2   338  GLY338      0.2280
    184  O         36.7840   54.5250   41.5240 O.2   338  GLY338     -0.2866
    185  N         38.6640   48.2260   40.3280 N.3   341  TYR341     -0.1241
    186  CA        38.6190   46.9530   41.0460 C.3   341  TYR341      0.1605
    187  C         37.5400   46.0250   40.4940 C.2   341  TYR341      0.2264
    188  O         36.5570   46.4950   39.9030 O.2   341  TYR341     -0.2867
    189  CB        38.3750   47.2080   42.5460 C.3   341  TYR341      0.0534
    190  CG        39.5970   47.6710   43.3260 C.ar  341  TYR341     -0.0201
    191  CD1       40.5760   48.4980   42.7670 C.ar  341  TYR341     -0.0009
    192  CD2       39.7390   47.2680   44.6430 C.ar  341  TYR341     -0.0009
    193  CE1       41.6710   48.9140   43.4870 C.ar  341  TYR341      0.0417
    194  CE2       40.8380   47.6920   45.3790 C.ar  341  TYR341      0.0417
    195  CZ        41.7960   48.5150   44.7800 C.ar  341  TYR341      0.1957
    196  OH        42.9090   48.8960   45.4980 O.3   341  TYR341     -0.2866
@<TRIPOS>BOND
     1   172   173    2
     2   172   171    1
     3   171   170    1
     4   171   174    1
     5   174   175    1
     6   175   176    1
     7   158   159    1
     8   160   161    2
     9   160   159    1
    10   159   162    1
    11   176   177    1
    12   162   163    1
    13   188   187    2
    14   177   178    2
    15   185   186    1
    16   187   186    1
    17   163   165   ar
    18   163   164   ar
    19   186   189    1
    20   165   167   ar
    21   164   166   ar
    22   178   179    1
    23   178   180    1
    24   184   183    2
    25   183   182    1
    26   181   182    1
    27   167   168   ar
    28   166   168   ar
    29   189   190    1
    30   148   149    1
    31   148   147    1
    32   148   151    1
    33   191   190   ar
    34   191   193   ar
    35   149   150    2
    36   168   169    1
    37   190   192   ar
    38   152   151    1
    39   152   153    1
    40   193   195   ar
    41   154   153    1
    42   154   155    2
    43   157   155    1
    44    10     9    1
    45   155   156    1
    46   192   194   ar
    47   195   194   ar
    48   195   196    1
    49     7     8    1
    50     7     6    1
    51     9     8    2
    52     9    11    1
    53   141   140    2
    54   145   144   ar
    55    12    13    1
    56    12     3   am
    57     2     1    1
    58     2     3    1
    59     2     5    1
    60     6     5    1
    61   128   129    1
    62   129   130    1
    63    13    14    1
    64    13    16    1
    65    14    15    2
    66     3     4    2
    67   140   139    1
    68   142   139    1
    69   142   143    1
    70   144   146   ar
    71   144   143    1
    72   130   131    2
    73   130   132   am
    74    19    17    1
    75   139   138    1
    76   132   133    1
    77    16    18    1
    78    16    17    1
    79   138   134   am
    80   134   133    1
    81   134   135    2
    82   133   136    1
    83    29    28    1
    84    37    36   ar
    85    26    27    1
    86    26    25    1
    87    28    27    2
    88    28    30    1
    89    38    36   ar
    90    23    22    2
    91   136   137    1
    92    25    24    1
    93    24    21    1
    94    36    35    1
    95    20    21    1
    96    62    61   ar
    97    22    21    1
    98    31    32    1
    99   119   117   am
   100   118   117    2
   101    63    61   ar
   102    61    60    1
   103   117   116    1
   104    35    32    1
   105    57    58    1
   106    57    60    1
   107    57    56    1
   108    32    33    1
   109    58    59    2
   110   116   115    1
   111   127   125    1
   112   125   124    1
   113   125   126    1
   114   124   121    1
   115    56    50   am
   116   115   112    1
   117   123   122    2
   118    83    82    1
   119    55    54    1
   120   122   121    1
   121    33    39   am
   122    33    34    2
   123   112   111    1
   124   112   113    1
   125   121   120    1
   126    93    91   ar
   127    93    94   ar
   128    82    84    1
   129    82    79    1
   130    39    40    1
   131    46    45    2
   132    50    49    1
   133    50    51    2
   134   109   108    1
   135    96    94   ar
   136    96    98   ar
   137    52    49    1
   138    52    53    1
   139    91    90   ar
   140    94    92   ar
   141    49    48    1
   142    47    45   am
   143   106   105    2
   144    45    44    1
   145   110   108    1
   146   113   114    2
   147    54    53    1
   148   105   104    1
   149   108   107    1
   150    98    97   ar
   151    79    78    1
   152    79    80    1
   153    42    41    2
   154   107   104    1
   155    40    41    1
   156    40    43    1
   157    90    92   ar
   158    90    89    1
   159    43    44    1
   160    92    95   ar
   161   100    99    1
   162   100   101    1
   163    99    87   am
   164   104   103    1
   165    85    80   am
   166    85    86    1
   167    80    81    2
   168    97    95   ar
   169   101   102    2
   170    89    86    1
   171    87    86    1
   172    87    88    2
   173    76    77   ar
   174    76    74   ar
   175    77    75   ar
   176    74    71   ar
   177    75    73   ar
   178    71    73   ar
   179    71    69   ar
   180    73    72   ar
   181    69    68    1
   182    69    70   ar
   183    72    70   ar
   184    68    65    1
   185    64    65    1
   186    65    66    1
   187    67    66    2
