@<TRIPOS>MOLECULE
tmp/2skcA01.pdb
 144 138 0 0 0
SMALL
GASTEIGER

@<TRIPOS>ATOM
      1  N         26.8220   19.9550   37.4430 N.3    78  TYR78      -0.1241
      2  CA        25.6560   20.7920   37.1210 C.3    78  TYR78       0.1605
      3  C         24.3770   19.9470   37.0760 C.2    78  TYR78       0.2264
      4  O         23.8520   19.6470   36.0010 O.2    78  TYR78      -0.2867
      5  CB        25.8880   21.4650   35.7630 C.3    78  TYR78       0.0534
      6  CG        25.3970   22.8930   35.6360 C.ar   78  TYR78      -0.0201
      7  CD1       24.4920   23.4350   36.5610 C.ar   78  TYR78      -0.0009
      8  CD2       25.7990   23.6900   34.5550 C.ar   78  TYR78      -0.0009
      9  CE1       23.9960   24.7290   36.4070 C.ar   78  TYR78       0.0417
     10  CE2       25.3080   24.9850   34.3930 C.ar   78  TYR78       0.0417
     11  CZ        24.4080   25.4950   35.3190 C.ar   78  TYR78       0.1957
     12  OH        23.9220   26.7680   35.1400 O.3    78  TYR78      -0.2866
     13  N         29.4000   25.4690   35.9770 N.3   121  ASN121     -0.1225
     14  CA        29.4380   26.7100   35.2030 C.3   121  ASN121      0.1785
     15  C         28.7450   26.5770   33.8690 C.2   121  ASN121      0.2598
     16  O         27.9820   27.4500   33.4650 O.2   121  ASN121     -0.2718
     17  CB        30.8790   27.1250   34.9440 C.3   121  ASN121      0.1169
     18  CG        31.4630   27.9060   36.0780 C.2   121  ASN121      0.2627
     19  OD1       31.1610   29.0830   36.2590 O.2   121  ASN121     -0.2716
     20  ND2       32.3080   27.2580   36.8580 N.am  121  ASN121     -0.0877
     21  N         29.0400   25.4890   33.1720 N.am  122  GLY122     -0.1942
     22  CA        28.4380   25.2620   31.8730 C.3   122  GLY122      0.2014
     23  C         28.6460   23.8570   31.3440 C.2   122  GLY122      0.2639
     24  O         28.3000   22.8820   32.0080 O.2   122  GLY122     -0.2714
     25  N         29.2320   23.7690   30.1520 N.am  123  GLY123     -0.1954
     26  CA        29.4660   22.4950   29.4850 C.3   123  GLY123      0.1869
     27  C         30.1160   21.3580   30.2500 C.2   123  GLY123      0.2309
     28  O         29.6410   20.2230   30.2130 O.2   123  GLY123     -0.2863
     29  N         27.8530   20.0700   33.3210 N.3   126  ARG126     -0.1245
     30  CA        26.6510   19.3720   32.8670 C.3   126  ARG126      0.1563
     31  C         27.0550   18.0280   32.2970 C.2   126  ARG126      0.2260
     32  O         26.3130   17.0660   32.4380 O.2   126  ARG126     -0.2867
     33  CB        25.9070   20.1640   31.7760 C.3   126  ARG126      0.0307
     34  CG        24.3600   20.1030   31.8320 C.3   126  ARG126      0.0489
     35  CD        23.7560   18.6860   31.9500 C.3   126  ARG126      0.2205
     36  NE        22.8530   18.5910   33.0940 N.pl3 126  ARG126     -0.0865
     37  CZ        22.1910   17.4970   33.4680 C.cat 126  ARG126      0.5346
     38  NH1       22.3010   16.3620   32.7900 N.pl3 126  ARG126      0.1354
     39  NH2       21.4070   17.5510   34.5290 N.pl3 126  ARG126      0.1354
     40  N         17.0070   15.2700   28.9000 N.3   479  TRP479     -0.1241
     41  CA        16.9420   16.0900   27.6840 C.3   479  TRP479      0.1605
     42  C         15.9410   15.7020   26.5860 C.2   479  TRP479      0.2264
     43  O         15.9960   16.2170   25.4680 O.2   479  TRP479     -0.2867
     44  CB        18.3640   16.2380   27.1140 C.3   479  TRP479      0.0550
     45  CG        19.2770   16.9090   28.1230 C.ar  479  TRP479      0.0003
     46  CD1       20.3530   16.3480   28.7770 C.ar  479  TRP479      0.0946
     47  CD2       19.0980   18.2070   28.6980 C.ar  479  TRP479      0.0152
     48  NE1       20.8430   17.2220   29.7290 N.ar  479  TRP479     -0.2442
     49  CE2       20.0890   18.3680   29.7000 C.ar  479  TRP479      0.0810
     50  CE3       18.1910   19.2500   28.4660 C.ar  479  TRP479      0.0012
     51  CZ2       20.1930   19.5310   30.4650 C.ar  479  TRP479      0.0191
     52  CZ3       18.2960   20.4040   29.2280 C.ar  479  TRP479      0.0001
     53  CH2       19.2930   20.5340   30.2190 C.ar  479  TRP479      0.0015
     54  N         21.8010   29.9120   23.4180 N.3   555  VAL555     -0.1231
     55  CA        21.9580   29.9060   24.8590 C.3   555  VAL555      0.1692
     56  C         23.1950   29.1080   25.2730 C.2   555  VAL555      0.2592
     57  O         23.3020   27.9120   25.0070 O.2   555  VAL555     -0.2718
     58  CB        20.7030   29.3260   25.5520 C.3   555  VAL555      0.0266
     59  CG1       19.5510   30.3410   25.4930 C.3   555  VAL555      0.0020
     60  CG2       20.3080   28.0220   24.8930 C.3   555  VAL555      0.0020
     61  N         24.1350   29.8030   25.9120 N.am  556  LYS556     -0.1966
     62  CA        25.3910   29.2270   26.3990 C.3   556  LYS556      0.1728
     63  C         26.1320   30.3320   27.1540 C.2   556  LYS556      0.2616
     64  O         25.6780   31.4790   27.1810 O.2   556  LYS556     -0.2715
     65  CB        26.2480   28.7190   25.2290 C.3   556  LYS556      0.0311
     66  CG        26.7150   29.7960   24.2500 C.3   556  LYS556      0.0038
     67  CD        26.1230   29.5550   22.8810 C.3   556  LYS556      0.0206
     68  CE        26.9650   28.5990   22.0600 C.3   556  LYS556      0.1093
     69  NZ        26.4570   27.1950   22.0540 N.3   556  LYS556     -0.1314
     70  N         27.2600   30.0100   27.7720 N.am  557  ARG557     -0.1977
     71  CA        27.9770   31.0480   28.5040 C.3   557  ARG557      0.1597
     72  C         28.4090   32.1270   27.5260 C.2   557  ARG557      0.2287
     73  O         28.6480   31.8400   26.3480 O.2   557  ARG557     -0.2864
     74  CB        29.1980   30.4640   29.2210 C.3   557  ARG557      0.0334
     75  CG        28.8480   29.5890   30.4110 C.3   557  ARG557      0.0492
     76  CD        28.2640   30.3900   31.5570 C.3   557  ARG557      0.2205
     77  NE        29.1850   31.4040   32.0690 N.pl3 557  ARG557     -0.0865
     78  CZ        29.8320   31.3210   33.2320 C.cat 557  ARG557      0.5346
     79  NH1       29.6820   30.2650   34.0130 N.pl3 557  ARG557      0.1354
     80  NH2       30.6460   32.2930   33.6160 N.pl3 557  ARG557      0.1354
     81  N         32.4930   32.1020   21.4240 N.3   562  LYS562     -0.1245
     82  CA        31.1550   31.5850   21.0900 C.3   562  LYS562      0.1561
     83  C         30.4800   32.5240   20.0840 C.2   562  LYS562      0.2260
     84  O         29.5260   32.1430   19.3940 O.2   562  LYS562     -0.2867
     85  CB        30.2910   31.4620   22.3460 C.3   562  LYS562      0.0271
     86  CG        30.9690   30.7830   23.5180 C.3   562  LYS562      0.0035
     87  CD        30.5820   29.3260   23.6230 C.3   562  LYS562      0.0206
     88  CE        30.5420   28.8890   25.0730 C.3   562  LYS562      0.1093
     89  NZ        30.7330   27.4290   25.1800 N.3   562  LYS562     -0.1314
     90  N         20.1310   32.1270   32.6250 N.3   636  TYR636     -0.1227
     91  CA        20.1450   30.8420   31.9460 C.3   636  TYR636      0.1736
     92  C         20.7700   29.7880   32.8400 C.2   636  TYR636      0.2595
     93  O         21.8900   29.9550   33.3220 O.2   636  TYR636     -0.2718
     94  CB        20.9280   30.9380   30.6420 C.3   636  TYR636      0.0548
     95  CG        20.9880   29.6410   29.8660 C.ar  636  TYR636     -0.0200
     96  CD1       19.8210   28.9990   29.4320 C.ar  636  TYR636     -0.0009
     97  CD2       22.2100   29.0510   29.5670 C.ar  636  TYR636     -0.0009
     98  CE1       19.8820   27.7990   28.7170 C.ar  636  TYR636      0.0417
     99  CE2       22.2800   27.8570   28.8580 C.ar  636  TYR636      0.0417
    100  CZ        21.1180   27.2390   28.4380 C.ar  636  TYR636      0.1957
    101  OH        21.2020   26.0590   27.7310 O.3   636  TYR636     -0.2866
    102  N         20.0390   28.7000   33.0590 N.am  637  ARG637     -0.1966
    103  CA        20.5130   27.6020   33.8980 C.3   637  ARG637      0.1729
    104  C         19.8550   26.3240   33.4220 C.2   637  ARG637      0.2616
    105  O         19.0750   26.3580   32.4830 O.2   637  ARG637     -0.2715
    106  CB        20.1440   27.8450   35.3570 C.3   637  ARG637      0.0348
    107  CG        18.7190   28.3090   35.5320 C.3   637  ARG637      0.0492
    108  CD        18.4440   28.7480   36.9390 C.3   637  ARG637      0.2205
    109  NE        17.0100   28.7790   37.2210 N.pl3 637  ARG637     -0.0865
    110  CZ        16.1370   29.5940   36.6300 C.cat 637  ARG637      0.5346
    111  NH1       16.5300   30.4660   35.7040 N.pl3 637  ARG637      0.1354
    112  NH2       14.8590   29.5350   36.9650 N.pl3 637  ARG637      0.1354
    113  N         20.1530   25.2020   34.0670 N.am  638  VAL638     -0.1977
    114  CA        19.5860   23.9230   33.6520 C.3   638  VAL638      0.1596
    115  C         18.0490   23.9150   33.5570 C.2   638  VAL638      0.2287
    116  O         17.4900   23.5720   32.5180 O.2   638  VAL638     -0.2864
    117  CB        20.0610   22.7730   34.5830 C.3   638  VAL638      0.0276
    118  CG1       19.3990   21.4650   34.1790 C.3   638  VAL638      0.0022
    119  CG2       21.5770   22.6220   34.5050 C.3   638  VAL638      0.0022
    120  N         16.9150   25.8080   30.6490 N.3   641  ALA641     -0.1245
    121  CA        17.2520   25.1220   29.4050 C.3   641  ALA641      0.1562
    122  C         16.2040   24.0660   29.0560 C.2   641  ALA641      0.2260
    123  O         15.9120   23.8180   27.8780 O.2   641  ALA641     -0.2867
    124  CB        18.6220   24.4690   29.5330 C.3   641  ALA641      0.0290
    125  N         27.5310   20.7280   23.8440 N.3   664  THR664     -0.1203
    126  CA        26.5070   19.7210   24.1240 C.3   664  THR664      0.1994
    127  C         25.1010   20.2880   23.9520 C.2   664  THR664      0.2618
    128  O         24.1400   19.5500   23.7150 O.2   664  THR664     -0.2717
    129  CB        26.6810   19.1140   25.5410 C.3   664  THR664      0.1784
    130  OG1       26.9730   20.1480   26.4850 O.3   664  THR664     -0.2211
    131  CG2       27.8310   18.1100   25.5450 C.3   664  THR664      0.0376
    132  N         24.9920   21.6090   24.0520 N.am  665  GLY665     -0.1956
    133  CA        23.7150   22.2680   23.8760 C.3   665  GLY665      0.1869
    134  C         23.2460   21.9840   22.4630 C.2   665  GLY665      0.2309
    135  O         22.0510   21.8070   22.2290 O.2   665  GLY665     -0.2863
    136  N         21.3980   18.9350   22.4330 N.3   668  LYS668     -0.1245
    137  CA        20.1020   19.0900   23.0780 C.3   668  LYS668      0.1561
    138  C         19.0510   19.6130   22.0980 C.2   668  LYS668      0.2260
    139  O         17.9140   19.1600   22.0910 O.2   668  LYS668     -0.2867
    140  CB        20.2210   20.0430   24.2670 C.3   668  LYS668      0.0271
    141  CG        20.9640   19.4590   25.4460 C.3   668  LYS668      0.0035
    142  CD        21.2340   20.5230   26.4890 C.3   668  LYS668      0.0206
    143  CE        22.4920   20.1990   27.2670 C.3   668  LYS668      0.1093
    144  NZ        22.5690   21.3040   28.1670 N.3   668  LYS668     -0.1314
@<TRIPOS>BOND
     1    84    83    2
     2    83    82    1
     3    82    81    1
     4    82    85    1
     5    69    68    1
     6    68    67    1
     7   139   138    2
     8   138   137    1
     9   135   134    2
    10    85    86    1
    11   136   137    1
    12   134   133    1
    13    67    66    1
    14   137   140    1
    15    54    55    1
    16    86    87    1
    17    87    88    1
    18   128   127    2
    19   125   126    1
    20   133   132    1
    21   127   132   am
    22   127   126    1
    23   126   129    1
    24    66    65    1
    25   140   141    1
    26    55    56    1
    27    55    58    1
    28    60    58    1
    29    57    56    2
    30    88    89    1
    31    65    62    1
    32    56    61   am
    33   141   142    1
    34    43    42    2
    35    59    58    1
    36   129   131    1
    37   129   130    1
    38    61    62    1
    39    73    72    2
    40    62    63    1
    41   142   143    1
    42    42    41    1
    43    44    41    1
    44    44    45    1
    45    63    64    2
    46    63    70   am
    47   143   144    1
    48    72    71    1
    49    41    40    1
    50   101   100    1
    51    70    71    1
    52   123   122    2
    53    45    47   ar
    54    45    46   ar
    55   100    98   ar
    56   100    99   ar
    57    50    47   ar
    58    50    52   ar
    59    71    74    1
    60    47    49   ar
    61    98    96   ar
    62    46    48   ar
    63    99    97   ar
    64   122   121    1
    65    74    75    1
    66    52    53   ar
    67   121   124    1
    68   121   120    1
    69    96    95   ar
    70    26    25    1
    71    26    27    1
    72    97    95   ar
    73    49    48   ar
    74    49    51   ar
    75    95    94    1
    76    25    23   am
    77    28    27    2
    78    53    51   ar
    79    75    76    1
    80    94    91    1
    81    23    22    1
    82    23    24    2
    83    76    77    1
    84    33    34    1
    85    33    30    1
    86    34    35    1
    87    22    21    1
    88    91    90    1
    89    91    92    1
    90    35    36    1
    91    77    78    2
    92    31    32    2
    93    31    30    1
    94   105   104    2
    95   116   115    2
    96    38    37    1
    97    92   102   am
    98    92    93    2
    99    30    29    1
   100   102   103    1
   101    36    37    2
   102    21    15   am
   103    78    80    1
   104    78    79    1
   105   104   103    1
   106   104   113   am
   107    16    15    2
   108    37    39    1
   109   115   114    1
   110   114   113    1
   111   114   117    1
   112    15    14    1
   113   103   106    1
   114   118   117    1
   115    10     8   ar
   116    10    11   ar
   117   119   117    1
   118     8     6   ar
   119    17    14    1
   120    17    18    1
   121    12    11    1
   122    14    13    1
   123    11     9   ar
   124   106   107    1
   125   107   108    1
   126     6     5    1
   127     6     7   ar
   128   111   110    1
   129     5     2    1
   130     4     3    2
   131    18    19    2
   132    18    20   am
   133     9     7   ar
   134   110   112    1
   135   110   109    2
   136   108   109    1
   137     3     2    1
   138     2     1    1
