@<TRIPOS>MOLECULE
tmp/2sliA00.pdb
 182 171 0 0 0
SMALL
GASTEIGER

@<TRIPOS>ATOM
      1  N          8.8350    3.9690   28.5280 N.3   213  ARG213     -0.1231
      2  CA         7.8370    4.8870   29.0670 C.3   213  ARG213      0.1694
      3  C          8.5510    6.1720   29.4630 C.2   213  ARG213      0.2591
      4  O          9.7770    6.2220   29.4810 O.2   213  ARG213     -0.2718
      5  CB         7.1910    4.2940   30.3240 C.3   213  ARG213      0.0321
      6  CG         5.9920    3.3960   30.0710 C.3   213  ARG213      0.0489
      7  CD         4.7120    4.1600   30.3410 C.3   213  ARG213      0.2205
      8  NE         4.2910    4.0840   31.7280 N.pl3 213  ARG213     -0.0865
      9  CZ         3.6860    5.0510   32.4160 C.cat 213  ARG213      0.5346
     10  NH1        3.4180    6.2380   31.8820 N.pl3 213  ARG213      0.1354
     11  NH2        3.2790    4.7860   33.6390 N.pl3 213  ARG213      0.1354
     12  N          7.7630    7.1960   29.7810 N.am  214  ILE214     -0.1980
     13  CA         8.2490    8.4960   30.2520 C.3   214  ILE214      0.1595
     14  C          9.2260    9.2240   29.3180 C.2   214  ILE214      0.2287
     15  O         10.4280    9.3170   29.5930 O.2   214  ILE214     -0.2864
     16  CB         8.8770    8.3730   31.6690 C.3   214  ILE214      0.0276
     17  CG1        8.1940    7.2670   32.4980 C.3   214  ILE214      0.0022
     18  CG2        8.7920    9.7040   32.3870 C.3   214  ILE214      0.0022
     19  CD1        6.6990    7.4180   32.6810 C.3   214  ILE214      0.0001
     20  N         12.0690    0.1670   30.5050 N.3   232  ARG232     -0.1245
     21  CA        11.4190   -0.7120   31.4820 C.3   232  ARG232      0.1563
     22  C         11.4860   -2.1740   31.0470 C.2   232  ARG232      0.2260
     23  O         10.7280   -2.6260   30.1930 O.2   232  ARG232     -0.2867
     24  CB         9.9650   -0.2600   31.7040 C.3   232  ARG232      0.0307
     25  CG         9.8670    1.1930   32.1780 C.3   232  ARG232      0.0489
     26  CD         8.4930    1.5590   32.7390 C.3   232  ARG232      0.2205
     27  NE         8.5400    2.8770   33.3670 N.pl3 232  ARG232     -0.0865
     28  CZ         7.5700    3.4060   34.1110 C.cat 232  ARG232      0.5346
     29  NH1        6.4350    2.7390   34.3280 N.pl3 232  ARG232      0.1354
     30  NH2        7.7710    4.5780   34.7050 N.pl3 232  ARG232      0.1354
     31  N          5.8620    0.6040   37.1420 N.3   238  ASP238     -0.1225
     32  CA         6.6530    1.6770   37.7410 C.3   238  ASP238      0.1805
     33  C          7.6180    0.9840   38.6820 C.2   238  ASP238      0.2598
     34  O          7.4230   -0.1920   39.0270 O.2   238  ASP238     -0.2718
     35  CB         5.7960    2.6170   38.5940 C.3   238  ASP238      0.1424
     36  CG         4.7930    3.4020   37.7880 C.2   238  ASP238      0.3668
     37  OD1        5.0320    3.6700   36.5920 O.co2 238  ASP238     -0.2456
     38  OD2        3.7520    3.7580   38.3770 O.co2 238  ASP238     -0.2456
     39  N          8.5580    1.7600   39.2130 N.am  239  SER239     -0.1952
     40  CA         9.5540    1.2270   40.1090 C.3   239  SER239      0.1924
     41  C          9.1430    0.3040   41.2210 C.2   239  SER239      0.2314
     42  O          8.1270    0.4720   41.9080 O.2   239  SER239     -0.2863
     43  CB        10.5410    2.2780   40.5710 C.3   239  SER239      0.2116
     44  OG        11.5590    2.3730   39.5920 O.3   239  SER239     -0.2180
     45  N         14.2260    5.8560   37.3120 N.3   294  ILE294     -0.1231
     46  CA        12.9080    6.0650   36.7290 C.3   294  ILE294      0.1692
     47  C         12.6040    7.5580   36.6230 C.2   294  ILE294      0.2592
     48  O         13.0200    8.3290   37.4900 O.2   294  ILE294     -0.2718
     49  CB        11.8170    5.3310   37.6080 C.3   294  ILE294      0.0266
     50  CG1       10.4020    5.6340   37.1280 C.3   294  ILE294      0.0019
     51  CG2       11.9640    5.6970   39.0750 C.3   294  ILE294      0.0020
     52  CD1        9.3550    4.7450   37.7790 C.3   294  ILE294      0.0001
     53  N         11.9150    7.9310   35.5390 N.am  295  ASP295     -0.1974
     54  CA        11.4750    9.3020   35.2190 C.3   295  ASP295      0.1709
     55  C         12.6060   10.2710   34.9060 C.2   295  ASP295      0.2293
     56  O         13.1480   10.9160   35.8080 O.2   295  ASP295     -0.2864
     57  CB        10.5900    9.8640   36.3390 C.3   295  ASP295      0.1436
     58  CG         9.2420    9.1620   36.4340 C.2   295  ASP295      0.3671
     59  OD1        8.9300    8.2930   35.5950 O.co2 295  ASP295     -0.2456
     60  OD2        8.4790    9.4880   37.3550 O.co2 295  ASP295     -0.2456
     61  N         15.0340    9.5620   39.0840 N.3   312  ASP312     -0.1239
     62  CA        14.8940    9.0780   40.4520 C.3   312  ASP312      0.1674
     63  C         15.7390    7.8130   40.5510 C.2   312  ASP312      0.2266
     64  O         15.7600    6.9980   39.6210 O.2   312  ASP312     -0.2867
     65  CB        13.4490    8.6970   40.7720 C.3   312  ASP312      0.1410
     66  CG        12.4750    9.8330   40.5610 C.2   312  ASP312      0.3668
     67  OD1       12.8310   11.0090   40.8000 O.co2 312  ASP312     -0.2456
     68  OD2       11.3370    9.5320   40.1600 O.co2 312  ASP312     -0.2456
     69  N         16.1040    4.5140   42.6720 N.3   314  MET314     -0.1245
     70  CA        15.4190    3.6130   43.5770 C.3   314  MET314      0.1570
     71  C         16.2920    2.4350   44.0220 C.2   314  MET314      0.2261
     72  O         16.7560    1.6480   43.1870 O.2   314  MET314     -0.2867
     73  CB        14.1790    3.0550   42.8820 C.3   314  MET314      0.0387
     74  CG        13.1970    4.1030   42.4300 C.3   314  MET314      0.0595
     75  SD        12.4250    4.9420   43.8290 S.3   314  MET314     -0.1393
     76  CE        11.2040    5.8860   42.9650 C.3   314  MET314      0.0692
     77  N          8.2710    4.5490   44.5860 N.3   320  SER320     -0.1217
     78  CA         7.6750    5.6500   45.3530 C.3   320  SER320      0.1889
     79  C          6.7180    5.1680   46.4380 C.2   320  SER320      0.2288
     80  O          6.7480    5.6580   47.5620 O.2   320  SER320     -0.2866
     81  CB         6.9110    6.6100   44.4360 C.3   320  SER320      0.2089
     82  OG         7.7880    7.3170   43.5870 O.3   320  SER320     -0.2183
     83  N          8.9370   10.4120   49.8590 N.3   456  PHE456     -0.1241
     84  CA         9.6390   10.4590   48.5810 C.3   456  PHE456      0.1605
     85  C          9.6920   11.8910   48.0540 C.2   456  PHE456      0.2264
     86  O          8.8450   12.7130   48.3930 O.2   456  PHE456     -0.2867
     87  CB         8.9790    9.5290   47.5370 C.3   456  PHE456      0.0534
     88  CG         7.5670    9.9270   47.1380 C.ar  456  PHE456     -0.0203
     89  CD1        7.3400   10.9640   46.2360 C.ar  456  PHE456     -0.0042
     90  CD2        6.4680    9.2360   47.6470 C.ar  456  PHE456     -0.0042
     91  CE1        6.0460   11.3070   45.8490 C.ar  456  PHE456     -0.0003
     92  CE2        5.1690    9.5720   47.2640 C.ar  456  PHE456     -0.0003
     93  CZ         4.9560   10.6100   46.3650 C.ar  456  PHE456     -0.0000
     94  N         10.6210   13.2320   44.2640 N.3   458  VAL458     -0.1245
     95  CA        10.9540   12.8030   42.9180 C.3   458  VAL458      0.1561
     96  C         10.8060   13.9030   41.8820 C.2   458  VAL458      0.2260
     97  O         10.2400   14.9540   42.1590 O.2   458  VAL458     -0.2867
     98  CB        10.0610   11.5970   42.5330 C.3   458  VAL458      0.0252
     99  CG1       10.4050   10.3890   43.4030 C.3   458  VAL458      0.0019
    100  CG2        8.5770   11.9540   42.7060 C.3   458  VAL458      0.0019
    101  N          8.2500   16.8120   43.0070 N.3   481  TYR481     -0.1241
    102  CA         7.0100   16.6470   43.7550 C.3   481  TYR481      0.1605
    103  C          7.2550   15.6310   44.8540 C.2   481  TYR481      0.2264
    104  O          8.1760   14.8180   44.7630 O.2   481  TYR481     -0.2867
    105  CB         5.8020   16.3110   42.8710 C.3   481  TYR481      0.0534
    106  CG         5.7560   14.9120   42.3150 C.ar  481  TYR481     -0.0201
    107  CD1        5.1370   13.8800   43.0260 C.ar  481  TYR481     -0.0009
    108  CD2        6.2860   14.6260   41.0560 C.ar  481  TYR481     -0.0009
    109  CE1        5.0450   12.5990   42.4970 C.ar  481  TYR481      0.0417
    110  CE2        6.1990   13.3510   40.5180 C.ar  481  TYR481      0.0417
    111  CZ         5.5780   12.3430   41.2480 C.ar  481  TYR481      0.1957
    112  OH         5.5060   11.0710   40.7400 O.3   481  TYR481     -0.2866
    113  N          0.4340   13.0510   42.8620 N.3   513  THR513     -0.1218
    114  CA         1.4180   13.0070   41.7850 C.3   513  THR513      0.1862
    115  C          1.4140   14.3360   41.0360 C.2   513  THR513      0.2287
    116  O          0.9000   14.4330   39.9230 O.2   513  THR513     -0.2866
    117  CB         1.1050   11.8440   40.8180 C.3   513  THR513      0.1770
    118  OG1        0.9150   10.6390   41.5720 O.3   513  THR513     -0.2211
    119  CG2        2.2460   11.6390   39.8400 C.3   513  THR513      0.0375
    120  N          3.2130   16.1380   39.0170 N.3   515  GLU515     -0.1245
    121  CA         4.2120   16.2650   37.9610 C.3   515  GLU515      0.1567
    122  C          3.9770   17.6070   37.2670 C.2   515  GLU515      0.2260
    123  O          2.8550   17.9300   36.8730 O.2   515  GLU515     -0.2867
    124  CB         4.0620   15.1180   36.9630 C.3   515  GLU515      0.0388
    125  CG         4.2430   13.7550   37.5860 C.3   515  GLU515      0.1160
    126  CD         3.6600   12.6520   36.7340 C.2   515  GLU515      0.3649
    127  OE1        2.5640   12.8460   36.1730 O.co2 515  GLU515     -0.2457
    128  OE2        4.2900   11.5830   36.6430 O.co2 515  GLU515     -0.2457
    129  N          0.0360   18.5670   36.9860 N.3   531  ARG531     -0.1245
    130  CA        -1.0110   17.5630   37.1240 C.3   531  ARG531      0.1563
    131  C         -1.4150   17.6610   38.5980 C.2   531  ARG531      0.2260
    132  O         -0.5940   18.0240   39.4400 O.2   531  ARG531     -0.2867
    133  CB        -0.4010   16.1840   36.8360 C.3   531  ARG531      0.0307
    134  CG        -1.1900   14.9740   37.3230 C.3   531  ARG531      0.0489
    135  CD        -0.4000   13.6830   37.0550 C.3   531  ARG531      0.2205
    136  NE        -1.0560   12.4920   37.6000 N.pl3 531  ARG531     -0.0865
    137  CZ        -0.5970   11.2510   37.4630 C.cat 531  ARG531      0.5346
    138  NH1        0.5270   11.0160   36.7950 N.pl3 531  ARG531      0.1354
    139  NH2       -1.2690   10.2400   37.9940 N.pl3 531  ARG531      0.1354
    140  N         -6.7750    7.7430   29.6720 N.3   593  ARG593     -0.1245
    141  CA        -5.7500    8.5930   29.0790 C.3   593  ARG593      0.1563
    142  C         -5.8710    8.4690   27.5690 C.2   593  ARG593      0.2260
    143  O         -5.2630    7.5840   26.9410 O.2   593  ARG593     -0.2867
    144  CB        -4.3600    8.1960   29.5730 C.3   593  ARG593      0.0307
    145  CG        -4.1610    8.4440   31.0510 C.3   593  ARG593      0.0489
    146  CD        -2.7540    8.1080   31.5030 C.3   593  ARG593      0.2205
    147  NE        -2.4810    8.6790   32.8210 N.pl3 593  ARG593     -0.0865
    148  CZ        -1.4710    8.3240   33.6110 C.cat 593  ARG593      0.5346
    149  NH1       -0.6130    7.3850   33.2340 N.pl3 593  ARG593      0.1354
    150  NH2       -1.3070    8.9240   34.7830 N.pl3 593  ARG593      0.1354
    151  N          1.7510   10.0390   28.6770 N.3   633  TYR633     -0.1241
    152  CA         2.8760   10.9580   28.8930 C.3   633  TYR633      0.1605
    153  C          3.4480   11.4490   27.5620 C.2   633  TYR633      0.2264
    154  O          3.3750   10.7410   26.5420 O.2   633  TYR633     -0.2867
    155  CB         3.9720   10.2990   29.7370 C.3   633  TYR633      0.0534
    156  CG         3.6720   10.1920   31.2270 C.ar  633  TYR633     -0.0201
    157  CD1        2.3860    9.9070   31.6910 C.ar  633  TYR633     -0.0009
    158  CD2        4.6820   10.3620   32.1670 C.ar  633  TYR633     -0.0009
    159  CE1        2.1170    9.7960   33.0480 C.ar  633  TYR633      0.0417
    160  CE2        4.4270   10.2530   33.5340 C.ar  633  TYR633      0.0417
    161  CZ         3.1390    9.9700   33.9650 C.ar  633  TYR633      0.1957
    162  OH         2.8840    9.8840   35.3150 O.3   633  TYR633     -0.2866
    163  N         -1.5310    4.5280   29.4750 N.3   653  SER653     -0.1202
    164  CA        -0.5640    3.9990   30.4390 C.3   653  SER653      0.2020
    165  C         -1.0550    3.8360   31.8670 C.2   653  SER653      0.2618
    166  O         -0.2850    3.4450   32.7510 O.2   653  SER653     -0.2717
    167  CB         0.7230    4.8320   30.4280 C.3   653  SER653      0.2103
    168  OG         0.4780    6.1680   30.8360 O.3   653  SER653     -0.2182
    169  N         -2.3270    4.1490   32.0920 N.am  654  TRP654     -0.1975
    170  CA        -2.9350    4.0250   33.4100 C.3   654  TRP654      0.1640
    171  C         -3.7400    2.7240   33.4580 C.2   654  TRP654      0.2290
    172  O         -3.7050    1.9960   34.4620 O.2   654  TRP654     -0.2864
    173  CB        -3.8690    5.2160   33.6670 C.3   654  TRP654      0.0576
    174  CG        -4.4290    5.2980   35.0690 C.ar  654  TRP654      0.0006
    175  CD1       -5.7160    5.0480   35.4520 C.ar  654  TRP654      0.0946
    176  CD2       -3.7320    5.7170   36.2530 C.ar  654  TRP654      0.0152
    177  NE1       -5.8660    5.2910   36.7950 N.ar  654  TRP654     -0.2442
    178  CE2       -4.6690    5.7020   37.3130 C.ar  654  TRP654      0.0810
    179  CE3       -2.4120    6.1090   36.5210 C.ar  654  TRP654      0.0012
    180  CZ2       -4.3280    6.0680   38.6230 C.ar  654  TRP654      0.0191
    181  CZ3       -2.0730    6.4740   37.8250 C.ar  654  TRP654      0.0001
    182  CH2       -3.0330    6.4500   38.8590 C.ar  654  TRP654      0.0015
@<TRIPOS>BOND
     1   154   153    2
     2   143   142    2
     3   153   152    1
     4   142   141    1
     5     1     2    1
     6   151   152    1
     7   152   155    1
     8     2     3    1
     9     2     5    1
    10   141   144    1
    11   141   140    1
    12    14    15    2
    13    14    13    1
    14     3     4    2
    15     3    12   am
    16   163   164    1
    17   144   145    1
    18   155   156    1
    19    12    13    1
    20     6     5    1
    21     6     7    1
    22    23    22    2
    23    13    16    1
    24     7     8    1
    25   167   164    1
    26   167   168    1
    27   164   165    1
    28    20    21    1
    29    22    21    1
    30   145   146    1
    31   156   157   ar
    32   156   158   ar
    33    21    24    1
    34   146   147    1
    35    16    18    1
    36    16    17    1
    37   157   159   ar
    38    24    25    1
    39     8     9    2
    40   165   169   am
    41   165   166    2
    42    10     9    1
    43   169   170    1
    44   158   160   ar
    45    25    26    1
    46     9    11    1
    47    17    19    1
    48    26    27    1
    49   147   148    2
    50   159   161   ar
    51   149   148    1
    52    27    28    2
    53   170   171    1
    54   170   173    1
    55   171   172    2
    56   160   161   ar
    57   148   150    1
    58   173   174    1
    59   161   162    1
    60    28    29    1
    61    28    30    1
    62    55    54    1
    63    55    56    2
    64   174   175   ar
    65   174   176   ar
    66    54    53    1
    67    54    57    1
    68   175   177   ar
    69    53    47   am
    70    59    58   ar
    71   127   126   ar
    72   176   179   ar
    73   176   178   ar
    74    57    58    1
    75    58    60   ar
    76   179   181   ar
    77    37    36   ar
    78    47    46    1
    79    47    48    2
    80   128   126   ar
    81    46    45    1
    82    46    49    1
    83   126   125    1
    84   138   137    1
    85   177   178   ar
    86   133   130    1
    87   133   134    1
    88   123   122    2
    89   124   125    1
    90   124   121    1
    91   129   130    1
    92   135   134    1
    93   135   136    1
    94   130   131    1
    95    50    49    1
    96    50    52    1
    97    31    32    1
    98   122   121    1
    99   178   180   ar
   100   137   136    2
   101   137   139    1
   102    49    51    1
   103    32    35    1
   104    32    33    1
   105    36    38   ar
   106    36    35    1
   107   181   182   ar
   108   121   120    1
   109   131   132    2
   110   180   182   ar
   111    33    34    2
   112    33    39   am
   113    61    62    1
   114    39    40    1
   115    44    43    1
   116    64    63    2
   117   119   117    1
   118   116   115    2
   119    40    43    1
   120    40    41    1
   121    68    66   ar
   122    62    63    1
   123    62    65    1
   124   110   108   ar
   125   110   111   ar
   126    66    65    1
   127    66    67   ar
   128   112   111    1
   129   117   118    1
   130   117   114    1
   131   115   114    1
   132   108   106   ar
   133    41    42    2
   134   111   109   ar
   135   114   113    1
   136    96    97    2
   137    96    95    1
   138   106   105    1
   139   106   107   ar
   140    74    73    1
   141    74    75    1
   142   109   107   ar
   143    98   100    1
   144    98    95    1
   145    98    99    1
   146    69    70    1
   147   105   102    1
   148    73    70    1
   149    95    94    1
   150    76    75    1
   151   101   102    1
   152    72    71    2
   153    70    71    1
   154    82    81    1
   155   102   103    1
   156    81    78    1
   157    77    78    1
   158   104   103    2
   159    78    79    1
   160    91    89   ar
   161    91    93   ar
   162    89    88   ar
   163    93    92   ar
   164    79    80    2
   165    88    87    1
   166    88    90   ar
   167    92    90   ar
   168    87    84    1
   169    85    86    2
   170    85    84    1
   171    84    83    1
