@<TRIPOS>MOLECULE
tmp/2sqcB03.pdb
 154 148 0 0 0
SMALL
GASTEIGER

@<TRIPOS>ATOM
      1  N         69.8010   80.5190   27.4490 N.3   140  MET140     -0.1230
      2  CA        68.6790   79.5840   27.3840 C.3   140  MET140      0.1702
      3  C         69.0840   78.1360   27.2290 C.2   140  MET140      0.2592
      4  O         69.9230   77.7520   26.4040 O.2   140  MET140     -0.2718
      5  CB        67.7830   80.0410   26.2320 C.3   140  MET140      0.0401
      6  CG        66.5210   79.2140   26.0570 C.3   140  MET140      0.0596
      7  SD        65.3310   79.6160   27.3690 S.3   140  MET140     -0.1393
      8  CE        64.2960   78.1640   27.1720 C.3   140  MET140      0.0692
      9  N         68.4190   77.2800   28.0070 N.am  141  VAL141     -0.1966
     10  CA        68.5400   75.8270   27.9140 C.3   141  VAL141      0.1712
     11  C         67.1150   75.3840   27.5610 C.2   141  VAL141      0.2458
     12  O         66.2390   75.4190   28.4110 O.2   141  VAL141     -0.2730
     13  CB        68.9190   75.1660   29.2520 C.3   141  VAL141      0.0289
     14  CG1       69.0040   73.6640   29.1060 C.3   141  VAL141      0.0023
     15  CG2       70.2440   75.7220   29.7640 C.3   141  VAL141      0.0023
     16  N         66.8650   75.1140   26.2940 N.am  142  PRO142     -0.2727
     17  CA        65.5230   74.7860   25.8370 C.3   142  PRO142      0.1402
     18  C         65.1710   73.3500   26.1180 C.2   142  PRO142      0.2269
     19  O         65.9500   72.4100   25.9080 O.2   142  PRO142     -0.2865
     20  CB        65.6340   75.1070   24.3370 C.3   142  PRO142      0.0296
     21  CG        67.0070   74.6220   24.0090 C.3   142  PRO142      0.0237
     22  CD        67.8600   75.0660   25.1890 C.3   142  PRO142      0.0939
     23  N         63.6160   71.4400   24.2490 N.3   144  GLU144     -0.1231
     24  CA        63.7840   70.7000   23.0100 C.3   144  GLU144      0.1699
     25  C         65.1370   70.0250   22.8950 C.2   144  GLU144      0.2592
     26  O         65.3410   69.1140   22.0670 O.2   144  GLU144     -0.2718
     27  CB        63.4960   71.5960   21.7950 C.3   144  GLU144      0.0402
     28  CG        62.0400   72.0540   21.7630 C.3   144  GLU144      0.1161
     29  CD        61.7360   73.2500   22.6370 C.2   144  GLU144      0.3649
     30  OE1       62.6060   73.8410   23.3080 O.co2 144  GLU144     -0.2457
     31  OE2       60.5390   73.6270   22.6320 O.co2 144  GLU144     -0.2457
     32  N         66.0870   70.2840   23.8090 N.am  145  ILE145     -0.1980
     33  CA        67.3120   69.5390   23.9180 C.3   145  ILE145      0.1595
     34  C         66.9810   68.0660   24.1030 C.2   145  ILE145      0.2287
     35  O         67.7680   67.1880   23.6740 O.2   145  ILE145     -0.2864
     36  CB        68.1830   70.0610   25.0930 C.3   145  ILE145      0.0276
     37  CG1       69.6290   69.6220   24.8830 C.3   145  ILE145      0.0022
     38  CG2       67.6660   69.5500   26.4480 C.3   145  ILE145      0.0022
     39  CD1       70.6200   70.2350   25.8600 C.3   145  ILE145      0.0001
     40  N         64.9560   66.3030   22.4940 N.3   147  PHE147     -0.1227
     41  CA        64.7680   65.6690   21.1880 C.3   147  PHE147      0.1736
     42  C         66.0740   65.2700   20.5180 C.2   147  PHE147      0.2595
     43  O         66.0340   64.5500   19.5040 O.2   147  PHE147     -0.2718
     44  CB        63.9990   66.6220   20.2510 C.3   147  PHE147      0.0547
     45  CG        62.5810   66.9100   20.6820 C.ar  147  PHE147     -0.0202
     46  CD1       61.7860   65.9150   21.2270 C.ar  147  PHE147     -0.0042
     47  CD2       62.0460   68.1770   20.5270 C.ar  147  PHE147     -0.0042
     48  CE1       60.4760   66.1670   21.6120 C.ar  147  PHE147     -0.0003
     49  CE2       60.7350   68.4320   20.8990 C.ar  147  PHE147     -0.0003
     50  CZ        59.9550   67.4270   21.4460 C.ar  147  PHE147     -0.0000
     51  N         67.2370   65.7070   21.0050 N.am  148  LEU148     -0.1980
     52  CA        68.4900   65.2980   20.3820 C.3   148  LEU148      0.1596
     53  C         68.8240   63.8620   20.7500 C.2   148  LEU148      0.2287
     54  O         68.9290   63.4950   21.9290 O.2   148  LEU148     -0.2864
     55  CB        69.6210   66.2480   20.7860 C.3   148  LEU148      0.0297
     56  CG        69.4050   67.7130   20.3950 C.3   148  LEU148      0.0022
     57  CD1       70.3510   68.6160   21.1540 C.3   148  LEU148      0.0001
     58  CD2       69.5660   67.9280   18.8840 C.3   148  LEU148      0.0001
     59  N         73.8140   63.0510   18.5150 N.3   152  MET152     -0.1245
     60  CA        73.7190   64.4320   18.0710 C.3   152  MET152      0.1570
     61  C         74.5160   65.3750   18.9640 C.2   152  MET152      0.2261
     62  O         74.6880   65.1700   20.1590 O.2   152  MET152     -0.2867
     63  CB        72.2480   64.8490   18.0100 C.3   152  MET152      0.0387
     64  CG        71.4770   63.8470   17.1390 C.3   152  MET152      0.0595
     65  SD        69.9100   64.5630   16.6490 S.3   152  MET152     -0.1393
     66  CE        68.8000   63.1610   16.7180 C.3   152  MET152      0.0692
     67  N         75.4360   68.3160   21.3050 N.3   154  LEU154     -0.1245
     68  CA        74.8090   68.8610   22.4870 C.3   154  LEU154      0.1561
     69  C         73.6820   68.0170   23.0630 C.2   154  LEU154      0.2260
     70  O         72.9160   68.4930   23.9140 O.2   154  LEU154     -0.2867
     71  CB        74.3450   70.3080   22.2320 C.3   154  LEU154      0.0270
     72  CG        75.4780   71.3120   22.0170 C.3   154  LEU154      0.0019
     73  CD1       74.9710   72.7110   21.7040 C.3   154  LEU154      0.0001
     74  CD2       76.3800   71.3430   23.2680 C.3   154  LEU154      0.0001
     75  N         77.0390   65.6050   27.9150 N.3   159  PHE159     -0.1241
     76  CA        77.3670   66.3390   29.1450 C.3   159  PHE159      0.1605
     77  C         77.8470   65.3610   30.2140 C.2   159  PHE159      0.2264
     78  O         77.3670   64.2200   30.1420 O.2   159  PHE159     -0.2867
     79  CB        76.1080   67.0620   29.6660 C.3   159  PHE159      0.0534
     80  CG        75.8230   68.3170   28.8720 C.ar  159  PHE159     -0.0203
     81  CD1       75.0990   68.2110   27.7000 C.ar  159  PHE159     -0.0042
     82  CD2       76.2790   69.5600   29.3120 C.ar  159  PHE159     -0.0042
     83  CE1       74.8150   69.3530   26.9570 C.ar  159  PHE159     -0.0003
     84  CE2       76.0090   70.6990   28.5620 C.ar  159  PHE159     -0.0003
     85  CZ        75.2700   70.5870   27.3980 C.ar  159  PHE159     -0.0000
     86  N         72.9690   80.9100   18.1370 N.3   214  LEU214     -0.1245
     87  CA        72.0080   79.9360   18.6430 C.3   214  LEU214      0.1561
     88  C         71.3540   80.4750   19.9090 C.2   214  LEU214      0.2260
     89  O         70.1260   80.3960   20.0280 O.2   214  LEU214     -0.2867
     90  CB        72.6570   78.5770   18.8650 C.3   214  LEU214      0.0270
     91  CG        71.8620   77.5670   19.7130 C.3   214  LEU214      0.0019
     92  CD1       70.6840   77.0010   18.9310 C.3   214  LEU214      0.0001
     93  CD2       72.7720   76.4410   20.1810 C.3   214  LEU214      0.0001
     94  N         67.4400   81.2080   20.3820 N.3   218  LEU218     -0.1245
     95  CA        66.6460   80.6100   21.4540 C.3   218  LEU218      0.1561
     96  C         65.9120   81.6540   22.2620 C.2   218  LEU218      0.2260
     97  O         64.7510   81.4150   22.6300 O.2   218  LEU218     -0.2867
     98  CB        67.5160   79.7430   22.3600 C.3   218  LEU218      0.0270
     99  CG        68.1580   78.5220   21.6960 C.3   218  LEU218      0.0019
    100  CD1       69.2220   77.9500   22.6300 C.3   218  LEU218      0.0001
    101  CD2       67.1140   77.4850   21.3190 C.3   218  LEU218      0.0001
    102  N         55.5620   71.3250   19.8310 N.3   229  PHE229     -0.1241
    103  CA        56.3140   70.2490   20.4670 C.3   229  PHE229      0.1605
    104  C         57.0090   70.6270   21.7660 C.2   229  PHE229      0.2264
    105  O         57.6480   69.7500   22.3700 O.2   229  PHE229     -0.2867
    106  CB        57.2980   69.6100   19.4550 C.3   229  PHE229      0.0534
    107  CG        56.5370   68.9400   18.3280 C.ar  229  PHE229     -0.0203
    108  CD1       55.7810   67.8030   18.5670 C.ar  229  PHE229     -0.0042
    109  CD2       56.5540   69.4740   17.0500 C.ar  229  PHE229     -0.0042
    110  CE1       55.0660   67.1980   17.5480 C.ar  229  PHE229     -0.0003
    111  CE2       55.8300   68.8810   16.0260 C.ar  229  PHE229     -0.0003
    112  CZ        55.0840   67.7400   16.2700 C.ar  229  PHE229     -0.0000
    113  N         55.6280   68.3960   24.5750 N.3   232  ALA232     -0.1245
    114  CA        56.1790   67.0730   24.4050 C.3   232  ALA232      0.1562
    115  C         57.6360   67.0420   24.8840 C.2   232  ALA232      0.2260
    116  O         58.0550   66.1110   25.5760 O.2   232  ALA232     -0.2867
    117  CB        56.1010   66.6630   22.9210 C.3   232  ALA232      0.0290
    118  N         59.2040   64.8500   28.1150 N.3   236  ARG236     -0.1245
    119  CA        60.4040   64.0100   28.0690 C.3   236  ARG236      0.1563
    120  C         61.3410   64.4190   29.2200 C.2   236  ARG236      0.2260
    121  O         61.9670   63.5450   29.7970 O.2   236  ARG236     -0.2867
    122  CB        61.2170   64.1440   26.7810 C.3   236  ARG236      0.0307
    123  CG        60.5810   63.4110   25.5920 C.3   236  ARG236      0.0489
    124  CD        61.3930   63.6680   24.3380 C.3   236  ARG236      0.2205
    125  NE        60.8030   62.9440   23.2030 N.pl3 236  ARG236     -0.0865
    126  CZ        61.5490   62.3600   22.2690 C.cat 236  ARG236      0.5346
    127  NH1       62.8780   62.4220   22.3360 N.pl3 236  ARG236      0.1354
    128  NH2       60.9440   61.7140   21.2780 N.pl3 236  ARG236      0.1354
    129  N         78.9520   76.5460   25.0450 N.3   425  ILE425     -0.1231
    130  CA        77.6330   77.1440   25.2190 C.3   425  ILE425      0.1678
    131  C         77.7500   78.1580   26.3590 C.2   425  ILE425      0.2434
    132  O         78.5380   77.9730   27.3010 O.2   425  ILE425     -0.2733
    133  CB        76.5650   76.0850   25.4690 C.3   425  ILE425      0.0265
    134  CG1       76.8150   75.3450   26.7710 C.3   425  ILE425      0.0019
    135  CG2       76.5180   75.1060   24.2910 C.3   425  ILE425      0.0020
    136  CD1       75.7060   74.3730   27.1490 C.3   425  ILE425      0.0001
    137  N         76.9730   79.2310   26.2710 N.am  426  PRO426     -0.2718
    138  CA        77.0850   80.3550   27.2040 C.3   426  PRO426      0.1535
    139  C         76.8510   79.9770   28.6520 C.2   426  PRO426      0.2598
    140  O         77.4190   80.3690   29.6790 O.2   426  PRO426     -0.2715
    141  CB        76.1100   81.3950   26.6910 C.3   426  PRO426      0.0310
    142  CG        75.3700   80.8200   25.5460 C.3   426  PRO426      0.0237
    143  CD        76.0850   79.5490   25.1390 C.3   426  PRO426      0.0939
    144  N         76.0220   78.9610   28.7940 N.am  427  PHE427     -0.1974
    145  CA        75.6730   78.3750   30.0580 C.3   427  PHE427      0.1639
    146  C         76.8550   77.8110   30.7950 C.2   427  PHE427      0.2290
    147  O         76.8800   77.8370   32.0190 O.2   427  PHE427     -0.2864
    148  CB        74.6280   77.2670   29.7780 C.3   427  PHE427      0.0560
    149  CG        74.1230   76.7510   31.0990 C.ar  427  PHE427     -0.0200
    150  CD1       73.2510   77.5380   31.8120 C.ar  427  PHE427     -0.0042
    151  CD2       74.5280   75.5200   31.5860 C.ar  427  PHE427     -0.0042
    152  CE1       72.7660   77.1320   33.0380 C.ar  427  PHE427     -0.0003
    153  CE2       74.0300   75.0790   32.8170 C.ar  427  PHE427     -0.0003
    154  CZ        73.1650   75.9000   33.5190 C.ar  427  PHE427     -0.0000
@<TRIPOS>BOND
     1   111   112   ar
     2   111   109   ar
     3   112   110   ar
     4    65    66    1
     5    65    64    1
     6   109   107   ar
     7    64    63    1
     8   110   108   ar
     9    63    60    1
    10    60    59    1
    11    60    61    1
    12    86    87    1
    13   107   108   ar
    14   107   106    1
    15    87    90    1
    16    87    88    1
    17    90    91    1
    18    58    56    1
    19    92    91    1
    20    61    62    2
    21   106   103    1
    22    43    42    2
    23    91    93    1
    24   102   103    1
    25    88    89    2
    26    44    45    1
    27    44    41    1
    28    94    95    1
    29    52    53    1
    30    52    55    1
    31    52    51    1
    32    56    55    1
    33    56    57    1
    34   103   104    1
    35    42    51   am
    36    42    41    1
    37    47    45   ar
    38    47    49   ar
    39    45    46   ar
    40    53    54    2
    41    49    50   ar
    42    41    40    1
    43    46    48   ar
    44   128   126    1
    45    67    68    1
    46   101    99    1
    47    50    48   ar
    48    95    96    1
    49    95    98    1
    50    99    98    1
    51    99   100    1
    52    73    72    1
    53    28    27    1
    54    28    29    1
    55   104   105    2
    56    27    24    1
    57    72    71    1
    58    72    74    1
    59    26    25    2
    60    71    68    1
    61    96    97    2
    62   126   127    1
    63   126   125    2
    64    68    69    1
    65    31    29   ar
    66    29    30   ar
    67    25    24    1
    68    25    32   am
    69   117   114    1
    70    24    23    1
    71    69    70    2
    72   125   124    1
    73    35    34    2
    74    32    33    1
    75    33    34    1
    76    33    36    1
    77    21    20    1
    78    21    22    1
    79   135   133    1
    80    20    17    1
    81   124   123    1
    82   114   113    1
    83   114   115    1
    84    37    36    1
    85    37    39    1
    86   115   116    2
    87   129   130    1
    88    36    38    1
    89   143   142    1
    90   143   137    1
    91    22    16    1
    92   130   133    1
    93   130   131    1
    94   133   134    1
    95   142   141    1
    96   123   122    1
    97    17    18    1
    98    17    16    1
    99    19    18    2
   100     6     5    1
   101     6     7    1
   102     5     2    1
   103   137   131   am
   104   137   138    1
   105    16    11   am
   106   131   132    2
   107     4     3    2
   108   141   138    1
   109   134   136    1
   110   122   119    1
   111    83    85   ar
   112    83    81   ar
   113     8     7    1
   114   138   139    1
   115     3     2    1
   116     3     9   am
   117     2     1    1
   118    85    84   ar
   119    11    10    1
   120    11    12    2
   121    81    80   ar
   122    10     9    1
   123    10    13    1
   124    75    76    1
   125   119   118    1
   126   119   120    1
   127    84    82   ar
   128   139   144   am
   129   139   140    2
   130   144   145    1
   131    80    82   ar
   132    80    79    1
   133    14    13    1
   134    76    79    1
   135    76    77    1
   136   120   121    2
   137    13    15    1
   138   148   145    1
   139   148   149    1
   140   145   146    1
   141    78    77    2
   142   146   147    2
   143   149   151   ar
   144   149   150   ar
   145   151   153   ar
   146   150   152   ar
   147   153   154   ar
   148   152   154   ar
