@<TRIPOS>MOLECULE
tmp/2sqcB01.pdb
 273 268 0 0 0
SMALL
GASTEIGER

@<TRIPOS>ATOM
      1  N         81.2350   66.7330   54.1510 N.3    29  LEU29      -0.1245
      2  CA        81.9250   67.2120   52.9560 C.3    29  LEU29       0.1561
      3  C         81.7410   68.7320   52.8620 C.2    29  LEU29       0.2260
      4  O         80.6080   69.2310   52.6830 O.2    29  LEU29      -0.2867
      5  CB        81.4060   66.5020   51.7040 C.3    29  LEU29       0.0270
      6  CG        82.0900   66.8820   50.3970 C.3    29  LEU29       0.0019
      7  CD1       83.5750   66.5540   50.4210 C.3    29  LEU29       0.0001
      8  CD2       81.4580   66.1560   49.2270 C.3    29  LEU29       0.0001
      9  N         76.0260   76.7010   48.7360 N.3    35  MET35      -0.1245
     10  CA        75.0760   75.6070   48.9980 C.3    35  MET35       0.1570
     11  C         73.9170   76.1430   49.8580 C.2    35  MET35       0.2261
     12  O         72.7300   75.9160   49.5860 O.2    35  MET35      -0.2867
     13  CB        75.7360   74.4570   49.7370 C.3    35  MET35       0.0387
     14  CG        76.9040   73.7670   49.0300 C.3    35  MET35       0.0595
     15  SD        76.3980   73.0230   47.4400 S.3    35  MET35      -0.1393
     16  CE        76.8030   74.3330   46.3030 C.3    35  MET35       0.0692
     17  N         78.6350   84.6300   37.5680 N.3   120  ARG120     -0.1245
     18  CA        78.3980   83.4560   36.7440 C.3   120  ARG120      0.1563
     19  C         76.9250   83.2790   36.4410 C.2   120  ARG120      0.2260
     20  O         76.0460   83.8090   37.1120 O.2   120  ARG120     -0.2867
     21  CB        78.9590   82.1910   37.4280 C.3   120  ARG120      0.0307
     22  CG        78.0610   81.8190   38.6180 C.3   120  ARG120      0.0489
     23  CD        78.5950   80.7270   39.5270 C.3   120  ARG120      0.2205
     24  NE        77.6540   80.5390   40.6530 N.pl3 120  ARG120     -0.0865
     25  CZ        77.5220   79.4450   41.3890 C.cat 120  ARG120      0.5346
     26  NH1       78.3010   78.3780   41.1700 N.pl3 120  ARG120      0.1354
     27  NH2       76.6080   79.4180   42.3770 N.pl3 120  ARG120      0.1354
     28  N         74.8980   80.7190   36.9240 N.3   122  PHE122     -0.1241
     29  CA        74.0170   80.2040   37.9930 C.3   122  PHE122      0.1605
     30  C         73.6510   81.2870   38.9960 C.2   122  PHE122      0.2264
     31  O         72.5080   81.2420   39.4590 O.2   122  PHE122     -0.2867
     32  CB        74.6730   79.0770   38.7800 C.3   122  PHE122      0.0534
     33  CG        74.7980   77.7440   38.1180 C.ar  122  PHE122     -0.0203
     34  CD1       73.7080   77.1420   37.5130 C.ar  122  PHE122     -0.0042
     35  CD2       76.0440   77.0940   38.1290 C.ar  122  PHE122     -0.0042
     36  CE1       73.8640   75.9020   36.9120 C.ar  122  PHE122     -0.0003
     37  CE2       76.1900   75.8500   37.5460 C.ar  122  PHE122     -0.0003
     38  CZ        75.0860   75.2580   36.9330 C.ar  122  PHE122     -0.0000
     39  N         77.2320   64.9950   36.3550 N.3   162  TRP162     -0.1241
     40  CA        76.8030   66.0250   37.3080 C.3   162  TRP162      0.1605
     41  C         76.1900   67.2110   36.5960 C.2   162  TRP162      0.2264
     42  O         75.4690   67.9690   37.2720 O.2   162  TRP162     -0.2867
     43  CB        78.0010   66.4630   38.1590 C.3   162  TRP162      0.0550
     44  CG        79.1460   66.9270   37.2820 C.ar  162  TRP162      0.0003
     45  CD1       79.2690   68.1310   36.6610 C.ar  162  TRP162      0.0946
     46  CD2       80.2700   66.1340   36.8740 C.ar  162  TRP162      0.0152
     47  NE1       80.4270   68.1550   35.9080 N.ar  162  TRP162     -0.2442
     48  CE2       81.0690   66.9420   36.0410 C.ar  162  TRP162      0.0810
     49  CE3       80.7000   64.8360   37.1620 C.ar  162  TRP162      0.0012
     50  CZ2       82.2690   66.4970   35.4890 C.ar  162  TRP162      0.0191
     51  CZ3       81.8960   64.4050   36.6120 C.ar  162  TRP162      0.0001
     52  CH2       82.6860   65.2290   35.7920 C.ar  162  TRP162      0.0015
     53  N         73.7830   65.0360   44.5550 N.3   254  ILE254     -0.1231
     54  CA        74.5270   66.2890   44.5310 C.3   254  ILE254      0.1692
     55  C         73.5310   67.4550   44.5260 C.2   254  ILE254      0.2592
     56  O         72.4390   67.3770   43.9820 O.2   254  ILE254     -0.2718
     57  CB        75.5020   66.4250   43.3570 C.3   254  ILE254      0.0266
     58  CG1       74.7810   66.1670   42.0200 C.3   254  ILE254      0.0019
     59  CG2       76.6560   65.4300   43.5520 C.3   254  ILE254      0.0020
     60  CD1       75.5850   66.6110   40.7830 C.3   254  ILE254      0.0001
     61  N         73.9970   68.5570   45.0910 N.am  255  GLN255     -0.1966
     62  CA        73.1260   69.7090   45.2890 C.3   255  GLN255      0.1718
     63  C         72.4670   70.3160   44.0840 C.2   255  GLN255      0.2458
     64  O         71.2390   70.5740   44.1530 O.2   255  GLN255     -0.2730
     65  CB        73.8570   70.7360   46.1980 C.3   255  GLN255      0.0407
     66  CG        73.0200   71.9940   46.5290 C.3   255  GLN255      0.0908
     67  CD        73.3830   73.1620   45.6330 C.2   255  GLN255      0.2608
     68  OE1       74.1460   73.0890   44.6660 O.2   255  GLN255     -0.2717
     69  NE2       72.8580   74.3470   45.9040 N.am  255  GLN255     -0.0878
     70  N         73.1790   70.6230   43.0170 N.am  256  PRO256     -0.2727
     71  CA        72.5830   71.3980   41.9190 C.3   256  PRO256      0.1402
     72  C         71.3850   70.7840   41.2510 C.2   256  PRO256      0.2269
     73  O         70.2900   71.3610   41.2700 O.2   256  PRO256     -0.2865
     74  CB        73.7550   71.7090   40.9890 C.3   256  PRO256      0.0296
     75  CG        74.9690   71.5970   41.8510 C.3   256  PRO256      0.0237
     76  CD        74.6380   70.4470   42.8140 C.3   256  PRO256      0.0939
     77  N         77.3870   69.5450   49.8060 N.3   299  ALA299     -0.1231
     78  CA        77.3110   69.5490   48.3520 C.3   299  ALA299      0.1694
     79  C         77.0070   68.1440   47.7910 C.2   299  ALA299      0.2592
     80  O         76.3400   67.9680   46.7630 O.2   299  ALA299     -0.2718
     81  CB        78.5890   70.0730   47.7310 C.3   299  ALA299      0.0304
     82  N         77.6020   67.1740   48.4630 N.am  300  SER300     -0.1952
     83  CA        77.3820   65.7600   48.2410 C.3   300  SER300      0.1924
     84  C         77.7360   64.9970   49.5130 C.2   300  SER300      0.2314
     85  O         78.0520   65.6950   50.4990 O.2   300  SER300     -0.2863
     86  CB        78.1710   65.2320   47.0480 C.3   300  SER300      0.2116
     87  OG        77.5940   63.9760   46.7570 O.3   300  SER300     -0.2180
     88  N         83.0680   56.2290   49.8910 N.3   305  TRP305     -0.1241
     89  CA        84.4660   56.6210   49.7260 C.3   305  TRP305      0.1605
     90  C         85.1760   56.6380   51.0690 C.2   305  TRP305      0.2264
     91  O         86.2420   56.0520   51.2500 O.2   305  TRP305     -0.2867
     92  CB        84.4730   58.0120   49.0910 C.3   305  TRP305      0.0550
     93  CG        85.7850   58.5910   48.6920 C.ar  305  TRP305      0.0003
     94  CD1       86.3240   59.7640   49.1630 C.ar  305  TRP305      0.0946
     95  CD2       86.7090   58.0940   47.7210 C.ar  305  TRP305      0.0152
     96  NE1       87.5220   60.0180   48.5380 N.ar  305  TRP305     -0.2442
     97  CE2       87.7750   59.0050   47.6520 C.ar  305  TRP305      0.0810
     98  CE3       86.7100   56.9630   46.8890 C.ar  305  TRP305      0.0012
     99  CZ2       88.8650   58.8070   46.7960 C.ar  305  TRP305      0.0191
    100  CZ3       87.7830   56.7790   46.0280 C.ar  305  TRP305      0.0001
    101  CH2       88.8580   57.6890   46.0050 C.ar  305  TRP305      0.0015
    102  N         78.9370   56.9760   45.5390 N.3   358  PHE358     -0.1227
    103  CA        79.6260   57.7270   46.5830 C.3   358  PHE358      0.1736
    104  C         78.7610   57.8640   47.8350 C.2   358  PHE358      0.2595
    105  O         79.2920   57.8120   48.9350 O.2   358  PHE358     -0.2718
    106  CB        79.8810   59.1220   46.0040 C.3   358  PHE358      0.0547
    107  CG        80.7330   60.1480   46.6780 C.ar  358  PHE358     -0.0202
    108  CD1       82.0430   59.9430   47.0290 C.ar  358  PHE358     -0.0042
    109  CD2       80.1800   61.4130   46.9480 C.ar  358  PHE358     -0.0042
    110  CE1       82.8230   60.9240   47.6000 C.ar  358  PHE358     -0.0003
    111  CE2       80.9390   62.4160   47.5210 C.ar  358  PHE358     -0.0003
    112  CZ        82.2640   62.1740   47.8500 C.ar  358  PHE358     -0.0000
    113  N         77.4700   58.0580   47.6190 N.am  359  GLN359     -0.1979
    114  CA        76.4700   58.3360   48.6570 C.3   359  GLN359      0.1601
    115  C         75.8880   57.0290   49.1790 C.2   359  GLN359      0.2287
    116  O         76.4150   55.9880   48.7620 O.2   359  GLN359     -0.2864
    117  CB        75.3760   59.2160   48.0060 C.3   359  GLN359      0.0394
    118  CG        75.8930   60.5020   47.3230 C.3   359  GLN359      0.0908
    119  CD        76.3300   60.2840   45.8740 C.2   359  GLN359      0.2608
    120  OE1       76.2000   59.1790   45.3200 O.2   359  GLN359     -0.2717
    121  NE2       76.8430   61.3130   45.1680 N.am  359  GLN359     -0.0878
    122  N         80.3230   55.3340   40.3590 N.3   367  ASP367     -0.1239
    123  CA        81.4790   56.0530   39.8190 C.3   367  ASP367      0.1674
    124  C         82.6980   55.1350   39.9060 C.2   367  ASP367      0.2266
    125  O         82.7830   54.2570   40.7490 O.2   367  ASP367     -0.2867
    126  CB        81.6990   57.3980   40.5060 C.3   367  ASP367      0.1410
    127  CG        82.1650   57.2540   41.9520 C.2   367  ASP367      0.3668
    128  OD1       83.4080   57.1760   42.0850 O.co2 367  ASP367     -0.2456
    129  OD2       81.3140   57.1890   42.8860 O.co2 367  ASP367     -0.2456
    130  N         85.9300   55.7430   40.7640 N.3   369  CYS369     -0.1221
    131  CA        86.7810   55.7930   41.9490 C.3   369  CYS369      0.1808
    132  C         86.2270   54.9590   43.1060 C.2   369  CYS369      0.2601
    133  O         86.9650   54.1710   43.6990 O.2   369  CYS369     -0.2717
    134  CB        86.9640   57.2280   42.4680 C.3   369  CYS369      0.0970
    135  SG        88.1920   58.0760   41.4490 S.3   369  CYS369     -0.0800
    136  N         84.9530   55.1440   43.4210 N.am  370  ASP370     -0.1973
    137  CA        84.3440   54.3660   44.5040 C.3   370  ASP370      0.1709
    138  C         84.3540   52.8760   44.1590 C.2   370  ASP370      0.2293
    139  O         84.6230   52.0490   45.0230 O.2   370  ASP370     -0.2864
    140  CB        82.9040   54.8220   44.7570 C.3   370  ASP370      0.1436
    141  CG        82.8750   56.1010   45.5960 C.2   370  ASP370      0.3671
    142  OD1       83.3680   56.0940   46.7460 O.co2 370  ASP370     -0.2456
    143  OD2       82.3260   57.1290   45.1340 O.co2 370  ASP370     -0.2456
    144  N         85.1340   59.5970   35.6170 N.3   412  ALA412     -0.1231
    145  CA        84.4760   59.1760   36.8510 C.3   412  ALA412      0.1694
    146  C         83.1800   58.4040   36.6590 C.2   412  ALA412      0.2592
    147  O         82.9200   57.4780   37.4400 O.2   412  ALA412     -0.2718
    148  CB        84.2460   60.4250   37.6910 C.3   412  ALA412      0.0304
    149  N         82.3170   58.8030   35.7140 N.am  413  TYR413     -0.1976
    150  CA        81.0460   58.1490   35.5400 C.3   413  TYR413      0.1639
    151  C         80.7700   57.5400   34.1710 C.2   413  TYR413      0.2290
    152  O         79.8280   56.7540   34.0320 O.2   413  TYR413     -0.2864
    153  CB        79.8830   59.1440   35.7370 C.3   413  TYR413      0.0560
    154  CG        79.8840   59.7750   37.1200 C.ar  413  TYR413     -0.0198
    155  CD1       80.6490   60.9030   37.3750 C.ar  413  TYR413     -0.0009
    156  CD2       79.1170   59.2330   38.1530 C.ar  413  TYR413     -0.0009
    157  CE1       80.6420   61.4980   38.6440 C.ar  413  TYR413      0.0417
    158  CE2       79.1190   59.8190   39.4150 C.ar  413  TYR413      0.0417
    159  CZ        79.8900   60.9510   39.6510 C.ar  413  TYR413      0.1957
    160  OH        79.8840   61.5370   40.9110 O.3   413  TYR413     -0.2866
    161  N         80.9740   77.9670   34.3470 N.3   430  PHE430     -0.1241
    162  CA        81.4230   77.5810   35.6880 C.3   430  PHE430      0.1605
    163  C         81.6390   76.0850   35.7870 C.2   430  PHE430      0.2264
    164  O         80.7330   75.2910   35.4840 O.2   430  PHE430     -0.2867
    165  CB        80.3650   78.0100   36.7270 C.3   430  PHE430      0.0534
    166  CG        80.5950   77.4970   38.1310 C.ar  430  PHE430     -0.0203
    167  CD1       80.0570   76.2890   38.5330 C.ar  430  PHE430     -0.0042
    168  CD2       81.3420   78.2380   39.0340 C.ar  430  PHE430     -0.0042
    169  CE1       80.2660   75.7840   39.8100 C.ar  430  PHE430     -0.0003
    170  CE2       81.5350   77.7590   40.3170 C.ar  430  PHE430     -0.0003
    171  CZ        80.9990   76.5340   40.7040 C.ar  430  PHE430     -0.0000
    172  N         94.1610   60.8160   38.0010 N.3   440  ASP440     -0.1239
    173  CA        93.9420   60.2500   39.3230 C.3   440  ASP440      0.1674
    174  C         92.9750   59.0750   39.3030 C.2   440  ASP440      0.2266
    175  O         93.1730   58.0840   40.0170 O.2   440  ASP440     -0.2867
    176  CB        93.4550   61.3410   40.2960 C.3   440  ASP440      0.1410
    177  CG        92.2470   62.1170   39.8200 C.2   440  ASP440      0.3668
    178  OD1       91.7120   62.0030   38.7040 O.co2 440  ASP440     -0.2456
    179  OD2       91.7070   62.9110   40.6250 O.co2 440  ASP440     -0.2456
    180  N         93.8100   55.2370   40.3680 N.3   444  HIS444     -0.1241
    181  CA        93.0770   54.4570   41.3870 C.3   444  HIS444      0.1621
    182  C         92.5930   53.1190   40.8530 C.2   444  HIS444      0.2264
    183  O         92.6910   52.0860   41.5420 O.2   444  HIS444     -0.2867
    184  CB        91.9080   55.2740   41.9520 C.3   444  HIS444      0.0745
    185  CG        92.3930   56.4750   42.7170 C.ar  444  HIS444      0.0817
    186  ND1       91.6630   57.6310   42.8320 N.ar  444  HIS444     -0.2268
    187  CD2       93.5450   56.7080   43.3920 C.ar  444  HIS444      0.1154
    188  CE1       92.3190   58.5120   43.5430 C.ar  444  HIS444      0.1986
    189  NE2       93.4580   57.9890   43.9060 N.ar  444  HIS444     -0.2212
    190  N         90.6030   65.3930   40.9650 N.3   482  TRP482     -0.1241
    191  CA        89.6360   65.3730   42.0680 C.3   482  TRP482      0.1605
    192  C         90.2560   65.5900   43.4420 C.2   482  TRP482      0.2264
    193  O         89.5450   65.5370   44.4540 O.2   482  TRP482     -0.2867
    194  CB        88.8800   64.0190   42.0360 C.3   482  TRP482      0.0550
    195  CG        88.0900   63.7630   40.7890 C.ar  482  TRP482      0.0003
    196  CD1       88.4790   62.9940   39.7210 C.ar  482  TRP482      0.0946
    197  CD2       86.7930   64.2670   40.4550 C.ar  482  TRP482      0.0152
    198  NE1       87.5050   62.9790   38.7530 N.ar  482  TRP482     -0.2442
    199  CE2       86.4620   63.7690   39.1730 C.ar  482  TRP482      0.0810
    200  CE3       85.8740   65.1000   41.1170 C.ar  482  TRP482      0.0012
    201  CZ2       85.2500   64.0530   38.5420 C.ar  482  TRP482      0.0191
    202  CZ3       84.6600   65.3870   40.4980 C.ar  482  TRP482      0.0001
    203  CH2       84.3780   64.8670   39.2130 C.ar  482  TRP482      0.0015
    204  N         98.6320   65.2870   44.8070 N.3   488  TYR488     -0.1241
    205  CA        97.6180   64.2330   44.7550 C.3   488  TYR488      0.1605
    206  C         97.7880   63.3770   43.5100 C.2   488  TYR488      0.2264
    207  O         97.8110   62.1580   43.6410 O.2   488  TYR488     -0.2867
    208  CB        96.2370   64.8770   44.6800 C.3   488  TYR488      0.0534
    209  CG        95.0610   63.9410   44.7130 C.ar  488  TYR488     -0.0201
    210  CD1       94.7100   63.3020   45.8980 C.ar  488  TYR488     -0.0009
    211  CD2       94.2930   63.7270   43.5710 C.ar  488  TYR488     -0.0009
    212  CE1       93.6040   62.4630   45.9280 C.ar  488  TYR488      0.0417
    213  CE2       93.1810   62.8830   43.5930 C.ar  488  TYR488      0.0417
    214  CZ        92.8510   62.2600   44.7810 C.ar  488  TYR488      0.1957
    215  OH        91.7640   61.4170   44.8600 O.3   488  TYR488     -0.2866
    216  N         86.3920   69.7150   43.3940 N.3   593  GLY593     -0.1210
    217  CA        85.1380   69.3460   42.7310 C.3   593  GLY593      0.1956
    218  C         85.2660   69.7110   41.2500 C.2   593  GLY593      0.2611
    219  O         84.9790   68.8740   40.3950 O.2   593  GLY593     -0.2717
    220  N         85.7130   70.9490   40.9510 N.am  594  PHE594     -0.1976
    221  CA        85.9690   71.4190   39.6080 C.3   594  PHE594      0.1639
    222  C         87.2170   72.3160   39.6190 C.2   594  PHE594      0.2290
    223  O         87.2110   73.3430   40.3130 O.2   594  PHE594     -0.2864
    224  CB        84.8430   72.2570   38.9900 C.3   594  PHE594      0.0560
    225  CG        83.4990   71.6250   38.8980 C.ar  594  PHE594     -0.0200
    226  CD1       83.3320   70.3990   38.2670 C.ar  594  PHE594     -0.0042
    227  CD2       82.3930   72.2690   39.4400 C.ar  594  PHE594     -0.0042
    228  CE1       82.0690   69.8200   38.1650 C.ar  594  PHE594     -0.0003
    229  CE2       81.1350   71.6910   39.3520 C.ar  594  PHE594     -0.0003
    230  CZ        80.9740   70.4740   38.7070 C.ar  594  PHE594     -0.0000
    231  N         85.5520   75.0050   42.1020 N.3   598  PHE598     -0.1241
    232  CA        84.8090   74.3780   43.1970 C.3   598  PHE598      0.1605
    233  C         85.6830   73.3990   43.9480 C.2   598  PHE598      0.2264
    234  O         86.1780   72.4330   43.3640 O.2   598  PHE598     -0.2867
    235  CB        83.5580   73.6810   42.6580 C.3   598  PHE598      0.0534
    236  CG        82.5660   73.3320   43.7330 C.ar  598  PHE598     -0.0203
    237  CD1       81.7120   74.2890   44.2430 C.ar  598  PHE598     -0.0042
    238  CD2       82.4510   72.0300   44.1900 C.ar  598  PHE598     -0.0042
    239  CE1       80.7820   73.9430   45.2200 C.ar  598  PHE598     -0.0003
    240  CE2       81.5320   71.6770   45.1580 C.ar  598  PHE598     -0.0003
    241  CZ        80.7010   72.6550   45.6850 C.ar  598  PHE598     -0.0000
    242  N         86.6880   71.2170   47.7180 N.3   600  LEU600     -0.1245
    243  CA        86.0890   70.3860   48.7510 C.3   600  LEU600      0.1561
    244  C         87.0070   70.0180   49.8970 C.2   600  LEU600      0.2260
    245  O         88.1990   69.7770   49.7160 O.2   600  LEU600     -0.2867
    246  CB        85.7120   69.0470   48.1010 C.3   600  LEU600      0.0270
    247  CG        84.6780   69.0840   46.9720 C.3   600  LEU600      0.0019
    248  CD1       84.6080   67.7560   46.2420 C.3   600  LEU600      0.0001
    249  CD2       83.3260   69.5170   47.5630 C.3   600  LEU600      0.0001
    250  N         87.2920   67.1750   52.3870 N.3   602  TYR602     -0.1241
    251  CA        86.8510   65.8190   52.7710 C.3   602  TYR602      0.1605
    252  C         87.3500   65.6430   54.2150 C.2   602  TYR602      0.2264
    253  O         88.5580   65.4650   54.4230 O.2   602  TYR602     -0.2867
    254  CB        87.5250   64.8070   51.8740 C.3   602  TYR602      0.0534
    255  CG        86.9710   64.6520   50.4730 C.ar  602  TYR602     -0.0201
    256  CD1       87.3830   65.4320   49.4060 C.ar  602  TYR602     -0.0009
    257  CD2       86.0650   63.6260   50.2200 C.ar  602  TYR602     -0.0009
    258  CE1       86.8840   65.2710   48.1110 C.ar  602  TYR602      0.0417
    259  CE2       85.5430   63.4410   48.9410 C.ar  602  TYR602      0.0417
    260  CZ        85.9690   64.2540   47.8980 C.ar  602  TYR602      0.1957
    261  OH        85.4240   64.0180   46.6500 O.3   602  TYR602     -0.2866
    262  N         89.8890   62.9220   55.3190 N.3   605  TYR605     -0.1241
    263  CA        91.2280   62.7930   54.7250 C.3   605  TYR605      0.1605
    264  C         92.3780   63.0240   55.6980 C.2   605  TYR605      0.2264
    265  O         93.3970   62.3080   55.6620 O.2   605  TYR605     -0.2867
    266  CB        91.4260   63.7470   53.5420 C.3   605  TYR605      0.0534
    267  CG        90.8340   63.3630   52.2170 C.ar  605  TYR605     -0.0201
    268  CD1       89.8910   62.3520   52.0830 C.ar  605  TYR605     -0.0009
    269  CD2       91.2070   64.0560   51.0660 C.ar  605  TYR605     -0.0009
    270  CE1       89.3690   61.9930   50.8460 C.ar  605  TYR605      0.0417
    271  CE2       90.6720   63.7210   49.8200 C.ar  605  TYR605      0.0417
    272  CZ        89.7690   62.6900   49.7340 C.ar  605  TYR605      0.1957
    273  OH        89.2380   62.3670   48.5090 O.3   605  TYR605     -0.2866
@<TRIPOS>BOND
     1   152   151    2
     2   151   150    1
     3   161   162    1
     4   164   163    2
     5    50    52   ar
     6    50    48   ar
     7   150   149    1
     8   150   153    1
     9   144   145    1
    10   162   163    1
    11   162   165    1
    12   149   146   am
    13   153   154    1
    14    52    51   ar
    15    47    48   ar
    16    47    45   ar
    17    48    46   ar
    18    39    40    1
    19    19    18    1
    20    19    20    2
    21    41    42    2
    22    41    40    1
    23    51    49   ar
    24   146   145    1
    25   146   147    2
    26    45    44   ar
    27   165   166    1
    28    18    21    1
    29    18    17    1
    30   145   148    1
    31    46    49   ar
    32    46    44   ar
    33    36    38   ar
    34    36    34   ar
    35    28    29    1
    36    38    37   ar
    37   154   155   ar
    38   154   156   ar
    39    44    43    1
    40    40    43    1
    41   155   157   ar
    42    21    22    1
    43    34    33   ar
    44    37    35   ar
    45    29    32    1
    46    29    30    1
    47   172   173    1
    48    33    35   ar
    49    33    32    1
    50   166   167   ar
    51   166   168   ar
    52   156   158   ar
    53   228   226   ar
    54   228   230   ar
    55   226   225   ar
    56   167   169   ar
    57   201   199   ar
    58   201   203   ar
    59    22    23    1
    60   157   159   ar
    61   178   177   ar
    62   230   229   ar
    63   198   199   ar
    64   198   196   ar
    65   225   224    1
    66   225   227   ar
    67   224   221    1
    68    30    31    2
    69   168   170   ar
    70   199   197   ar
    71   203   202   ar
    72   174   173    1
    73   174   175    2
    74   173   176    1
    75   229   227   ar
    76   158   159   ar
    77    23    24    1
    78   221   222    1
    79   221   220    1
    80   222   223    2
    81   159   160    1
    82   196   195   ar
    83   169   171   ar
    84   123   124    1
    85   123   122    1
    86   123   126    1
    87   177   176    1
    88   177   179   ar
    89   124   125    2
    90   170   171   ar
    91   180   181    1
    92   219   218    2
    93   197   195   ar
    94   197   200   ar
    95   202   200   ar
    96   126   127    1
    97    24    25    2
    98   130   131    1
    99    60    58    1
   100   195   194    1
   101   182   181    1
   102   182   183    2
   103   220   218   am
   104   190   191    1
   105    74    75    1
   106    74    71    1
   107    26    25    1
   108   218   217    1
   109    72    73    2
   110    72    71    1
   111   181   184    1
   112    25    27    1
   113   135   134    1
   114    75    76    1
   115    71    70    1
   116   131   134    1
   117   131   132    1
   118   127   128   ar
   119   127   129   ar
   120   184   185    1
   121    58    57    1
   122   194   191    1
   123   191   192    1
   124   231   232    1
   125   235   232    1
   126   235   236    1
   127   185   186   ar
   128   185   187   ar
   129   217   216    1
   130    76    70    1
   131   186   188   ar
   132    70    63   am
   133   132   136   am
   134   132   133    2
   135   232   233    1
   136    57    59    1
   137    57    54    1
   138   234   233    2
   139   187   189   ar
   140   136   137    1
   141   192   193    2
   142   206   207    2
   143   206   205    1
   144   188   189   ar
   145   211   213   ar
   146   211   209   ar
   147   213   214   ar
   148   236   238   ar
   149   236   237   ar
   150    56    55    2
   151    63    64    2
   152    63    62    1
   153   138   137    1
   154   138   139    2
   155   238   240   ar
   156   237   239   ar
   157   137   140    1
   158    55    54    1
   159    55    61   am
   160    54    53    1
   161    68    67    2
   162   208   209    1
   163   208   205    1
   164   209   210   ar
   165   205   204    1
   166   140   141    1
   167   214   215    1
   168   214   212   ar
   169    61    62    1
   170   143   141   ar
   171   240   241   ar
   172   121   119   am
   173   239   241   ar
   174    62    65    1
   175   120   119    2
   176   102   103    1
   177   141   142   ar
   178    67    69   am
   179    67    66    1
   180   119   118    1
   181   210   212   ar
   182   106   103    1
   183   106   107    1
   184   101   100   ar
   185   101    99   ar
   186   100    98   ar
   187    65    66    1
   188   248   247    1
   189    16    15    1
   190   103   104    1
   191   261   260    1
   192   107   109   ar
   193   107   108   ar
   194    87    86    1
   195    80    79    2
   196    99    97   ar
   197    98    95   ar
   198   109   111   ar
   199   247   249    1
   200   247   246    1
   201   108   110   ar
   202    86    83    1
   203   118   117    1
   204    15    14    1
   205   111   112   ar
   206   110   112   ar
   207   113   104   am
   208   113   114    1
   209    97    95   ar
   210    97    96   ar
   211   242   243    1
   212    95    93   ar
   213    81    78    1
   214    79    78    1
   215    79    82   am
   216   104   105    2
   217   260   258   ar
   218   260   259   ar
   219   117   114    1
   220   246   243    1
   221   258   256   ar
   222    83    82    1
   223    83    84    1
   224    78    77    1
   225   273   272    1
   226    96    94   ar
   227   114   115    1
   228    93    92    1
   229    93    94   ar
   230     9    10    1
   231   243   244    1
   232   116   115    2
   233   259   257   ar
   234    10    13    1
   235    10    11    1
   236    14    13    1
   237    92    89    1
   238     8     6    1
   239   256   255   ar
   240    84    85    2
   241    12    11    2
   242   245   244    2
   243    89    88    1
   244    89    90    1
   245   272   271   ar
   246   272   270   ar
   247   271   269   ar
   248   257   255   ar
   249     6     7    1
   250     6     5    1
   251   255   254    1
   252   270   268   ar
   253   269   267   ar
   254    90    91    2
   255     5     2    1
   256   254   251    1
   257   268   267   ar
   258   267   266    1
   259   250   251    1
   260     4     3    2
   261   251   252    1
   262     3     2    1
   263     2     1    1
   264   266   263    1
   265   252   253    2
   266   263   262    1
   267   263   264    1
   268   265   264    2
