@<TRIPOS>MOLECULE
tmp/2srcA00.pdb
 181 170 0 0 0
SMALL
GASTEIGER

@<TRIPOS>ATOM
      1  N         22.3680   17.1370   53.4210 N.3   190  LEU190     -0.1231
      2  CA        22.4700   17.2500   54.8700 C.3   190  LEU190      0.1696
      3  C         21.4400   16.3640   55.5540 C.2   190  LEU190      0.2632
      4  O         21.6680   15.8790   56.6650 O.2   190  LEU190     -0.2714
      5  CB        22.3000   18.7090   55.3030 C.3   190  LEU190      0.0284
      6  CG        23.3770   19.6480   54.7450 C.3   190  LEU190      0.0019
      7  CD1       23.2310   21.0290   55.3600 C.3   190  LEU190      0.0001
      8  CD2       24.7540   19.0710   55.0290 C.3   190  LEU190      0.0001
      9  N         20.3150   16.1350   54.8830 N.am  191  GLY191     -0.1718
     10  CA        19.2920   15.2990   55.4690 C.2   191  GLY191      0.1480
     11  C         17.9970   15.2340   54.6980 C.2   191  GLY191      0.2820
     12  O         17.7830   15.9700   53.7320 O.2   191  GLY191     -0.2669
     13  N         17.1260   14.3390   55.1490 N.am  192  GLN192     -0.1929
     14  CA        15.8270   14.1250   54.5360 C.3   192  GLN192      0.1736
     15  C         14.7340   14.2430   55.5890 C.2   192  GLN192      0.2617
     16  O         14.5940   13.3750   56.4500 O.2   192  GLN192     -0.2715
     17  CB        15.7610   12.7340   53.9040 C.3   192  GLN192      0.0408
     18  CG        16.1210   12.6960   52.4330 C.3   192  GLN192      0.0908
     19  CD        15.1000   11.9460   51.6000 C.2   192  GLN192      0.2608
     20  OE1       15.2890   10.7700   51.2790 O.2   192  GLN192     -0.2717
     21  NE2       14.0080   12.6240   51.2450 N.am  192  GLN192     -0.0878
     22  N         13.9710   15.3260   55.5270 N.am  193  GLY193     -0.1940
     23  CA        12.8850   15.5110   56.4680 C.3   193  GLY193      0.2014
     24  C         11.7220   14.6790   55.9750 C.2   193  GLY193      0.2639
     25  O         11.9290   13.6590   55.3070 O.2   193  GLY193     -0.2714
     26  N         10.5010   15.1100   56.2720 N.am  194  CYS194     -0.1953
     27  CA         9.3260   14.3630   55.8470 C.3   194  CYS194      0.1843
     28  C          8.7200   14.8590   54.5300 C.2   194  CYS194      0.2625
     29  O          8.0860   14.0860   53.8020 O.2   194  CYS194     -0.2714
     30  CB         8.2650   14.3990   56.9480 C.3   194  CYS194      0.0997
     31  SG         6.8820   13.2810   56.6720 S.3   194  CYS194     -0.0797
     32  N          8.9350   16.1380   54.2200 N.am  195  PHE195     -0.1960
     33  CA         8.3780   16.7400   53.0100 C.3   195  PHE195      0.1771
     34  C          9.4110   17.2690   52.0160 C.2   195  PHE195      0.2620
     35  O          9.0690   18.0350   51.1210 O.2   195  PHE195     -0.2715
     36  CB         7.4190   17.8720   53.4010 C.3   195  PHE195      0.0574
     37  CG         6.3630   17.4570   54.3930 C.ar  195  PHE195     -0.0200
     38  CD1        5.1480   16.9330   53.9570 C.ar  195  PHE195     -0.0042
     39  CD2        6.5920   17.5680   55.7640 C.ar  195  PHE195     -0.0042
     40  CE1        4.1790   16.5250   54.8640 C.ar  195  PHE195     -0.0003
     41  CE2        5.6260   17.1620   56.6830 C.ar  195  PHE195     -0.0003
     42  CZ         4.4170   16.6380   56.2320 C.ar  195  PHE195     -0.0000
     43  N         10.6680   16.8590   52.1720 N.am  196  GLY196     -0.1954
     44  CA        11.7150   17.3080   51.2670 C.3   196  GLY196      0.1869
     45  C         13.1120   16.9630   51.7460 C.2   196  GLY196      0.2309
     46  O         13.2800   16.1220   52.6240 O.2   196  GLY196     -0.2863
     47  N         17.3870   18.5440   52.4570 N.3   198  VAL198     -0.1245
     48  CA        18.1740   19.7240   52.7530 C.3   198  VAL198      0.1561
     49  C         19.6030   19.4590   52.2850 C.2   198  VAL198      0.2260
     50  O         20.1510   18.3700   52.5110 O.2   198  VAL198     -0.2867
     51  CB        18.1450   20.0700   54.2670 C.3   198  VAL198      0.0252
     52  CG1       18.9800   21.3240   54.5330 C.3   198  VAL198      0.0019
     53  CG2       16.7040   20.2980   54.7180 C.3   198  VAL198      0.0019
     54  N         22.3400   27.0410   52.6010 N.3   210  ALA210     -0.1245
     55  CA        21.6740   25.7870   52.8900 C.3   210  ALA210      0.1562
     56  C         20.4350   25.8570   52.0100 C.2   210  ALA210      0.2260
     57  O         19.7750   26.9010   51.9570 O.2   210  ALA210     -0.2867
     58  CB        21.2710   25.7120   54.3580 C.3   210  ALA210      0.0290
     59  N         16.7450   23.9780   51.1220 N.3   212  LYS212     -0.1245
     60  CA        15.7250   22.9850   51.4430 C.3   212  LYS212      0.1561
     61  C         14.7910   22.8560   50.2500 C.2   212  LYS212      0.2260
     62  O         14.3110   23.8560   49.7050 O.2   212  LYS212     -0.2867
     63  CB        14.9020   23.3820   52.6680 C.3   212  LYS212      0.0271
     64  CG        13.7090   22.4590   52.8870 C.3   212  LYS212      0.0035
     65  CD        12.9530   22.7960   54.1490 C.3   212  LYS212      0.0206
     66  CE        13.5870   22.1170   55.3510 C.3   212  LYS212      0.1093
     67  NZ        12.5910   21.9170   56.4400 N.3   212  LYS212     -0.1314
     68  N         17.2920   31.6940   62.3410 N.3   240  VAL240     -0.1245
     69  CA        18.0000   31.4110   61.0910 C.3   240  VAL240      0.1561
     70  C         17.3850   32.3140   60.0160 C.2   240  VAL240      0.2260
     71  O         16.1730   32.2940   59.8270 O.2   240  VAL240     -0.2867
     72  CB        17.8060   29.9510   60.6640 C.3   240  VAL240      0.0252
     73  CG1       18.3750   29.7380   59.2860 C.3   240  VAL240      0.0019
     74  CG2       18.4830   29.0240   61.6660 C.3   240  VAL240      0.0019
     75  N         18.3920   29.3850   53.1090 N.3   255  THR255     -0.1203
     76  CA        18.6520   30.0010   54.4080 C.3   255  THR255      0.1994
     77  C         20.1370   29.9370   54.7100 C.2   255  THR255      0.2618
     78  O         20.9120   29.3700   53.9360 O.2   255  THR255     -0.2717
     79  CB        17.8960   29.2770   55.5580 C.3   255  THR255      0.1784
     80  OG1       18.3960   27.9420   55.6940 O.3   255  THR255     -0.2211
     81  CG2       16.3970   29.2260   55.2830 C.3   255  THR255      0.0376
     82  N         20.5400   30.5250   55.8350 N.am  256  GLU256     -0.1965
     83  CA        21.9470   30.5100   56.2220 C.3   256  GLU256      0.1733
     84  C         22.3370   29.0920   56.6600 C.2   256  GLU256      0.2616
     85  O         21.5680   28.4020   57.3280 O.2   256  GLU256     -0.2715
     86  CB        22.2000   31.5370   57.3380 C.3   256  GLU256      0.0429
     87  CG        22.0230   31.0310   58.7570 C.3   256  GLU256      0.1163
     88  CD        22.0910   32.1500   59.7920 C.2   256  GLU256      0.3649
     89  OE1       21.1360   32.9560   59.8630 O.co2 256  GLU256     -0.2457
     90  OE2       23.0990   32.2250   60.5290 O.co2 256  GLU256     -0.2457
     91  N         23.5240   28.6590   56.2540 N.am  257  TYR257     -0.1960
     92  CA        24.0240   27.3250   56.5760 C.3   257  TYR257      0.1771
     93  C         24.6770   27.2410   57.9630 C.2   257  TYR257      0.2619
     94  O         25.6240   27.9730   58.2610 O.2   257  TYR257     -0.2715
     95  CB        25.0280   26.8790   55.5000 C.3   257  TYR257      0.0574
     96  CG        25.7480   25.5800   55.8120 C.ar  257  TYR257     -0.0198
     97  CD1       25.0490   24.3800   55.9210 C.ar  257  TYR257     -0.0009
     98  CD2       27.1250   25.5580   56.0220 C.ar  257  TYR257     -0.0009
     99  CE1       25.7070   23.1880   56.2340 C.ar  257  TYR257      0.0417
    100  CE2       27.7880   24.3730   56.3360 C.ar  257  TYR257      0.0417
    101  CZ        27.0710   23.1970   56.4400 C.ar  257  TYR257      0.1957
    102  OH        27.7240   22.0300   56.7530 O.3   257  TYR257     -0.2866
    103  N         24.1570   26.3470   58.8020 N.am  258  MET258     -0.1977
    104  CA        24.6780   26.1370   60.1520 C.3   258  MET258      0.1605
    105  C         25.5200   24.8640   60.1340 C.2   258  MET258      0.2287
    106  O         24.9930   23.7460   60.1690 O.2   258  MET258     -0.2864
    107  CB        23.5240   25.9920   61.1400 C.3   258  MET258      0.0413
    108  CG        22.4800   27.0920   61.0300 C.3   258  MET258      0.0598
    109  SD        23.0880   28.6480   61.7020 S.3   258  MET258     -0.1393
    110  CE        23.3710   28.2250   63.4430 C.3   258  MET258      0.0692
    111  N         25.1740   21.6710   62.5500 N.3   261  GLY261     -0.1210
    112  CA        23.9730   20.8570   62.4820 C.3   261  GLY261      0.1956
    113  C         22.8950   21.1540   63.5190 C.2   261  GLY261      0.2612
    114  O         22.9410   22.1810   64.2050 O.2   261  GLY261     -0.2717
    115  N         21.9300   20.2400   63.6340 N.am  262  SER262     -0.1952
    116  CA        20.8120   20.3740   64.5740 C.3   262  SER262      0.1924
    117  C         21.1680   20.1180   66.0460 C.2   262  SER262      0.2314
    118  O         22.1430   19.4220   66.3580 O.2   262  SER262     -0.2863
    119  CB        19.6670   19.4390   64.1620 C.3   262  SER262      0.2116
    120  OG        19.8670   18.1220   64.6480 O.3   262  SER262     -0.2180
    121  N         20.8310   16.1700   67.1960 N.3   265  ASP265     -0.1239
    122  CA        22.0020   15.3440   66.9230 C.3   265  ASP265      0.1674
    123  C         23.2290   15.7670   67.7320 C.2   265  ASP265      0.2266
    124  O         24.0390   14.9270   68.1000 O.2   265  ASP265     -0.2867
    125  CB        22.3160   15.3560   65.4240 C.3   265  ASP265      0.1410
    126  CG        21.2760   14.6020   64.6070 C.2   265  ASP265      0.3668
    127  OD1       20.5900   13.7190   65.1720 O.co2 265  ASP265     -0.2456
    128  OD2       21.1380   14.8910   63.3970 O.co2 265  ASP265     -0.2456
    129  N          6.1620   24.3880   64.9790 N.3   303  ASP303     -0.1239
    130  CA         6.9520   23.1620   64.8880 C.3   303  ASP303      0.1674
    131  C          8.2460   23.2550   65.6780 C.2   303  ASP303      0.2266
    132  O          9.3250   22.9040   65.1930 O.2   303  ASP303     -0.2867
    133  CB         7.2700   22.8500   63.4280 C.3   303  ASP303      0.1410
    134  CG         7.7130   21.4170   63.2250 C.2   303  ASP303      0.3668
    135  OD1        7.3550   20.5520   64.0560 O.co2 303  ASP303     -0.2456
    136  OD2        8.4250   21.1590   62.2360 O.co2 303  ASP303     -0.2456
    137  N         10.9320   22.1540   68.2530 N.3   305  ARG305     -0.1245
    138  CA        11.5320   20.9480   68.8430 C.3   305  ARG305      0.1563
    139  C         13.0430   20.9880   68.5790 C.2   305  ARG305      0.2260
    140  O         13.4960   21.7490   67.7280 O.2   305  ARG305     -0.2867
    141  CB        10.8990   19.6680   68.2790 C.3   305  ARG305      0.0307
    142  CG        11.0510   19.4520   66.7900 C.3   305  ARG305      0.0489
    143  CD        10.1910   18.2820   66.3450 C.3   305  ARG305      0.2205
    144  NE         9.6050   18.5330   65.0360 N.pl3 305  ARG305     -0.0865
    145  CZ        10.0560   17.9930   63.9110 C.cat 305  ARG305      0.5346
    146  NH1       11.0950   17.1730   63.9410 N.pl3 305  ARG305      0.1354
    147  NH2        9.4850   18.2910   62.7560 N.pl3 305  ARG305      0.1354
    148  N         15.0110   19.2250   66.9510 N.3   307  ALA307     -0.1231
    149  CA        15.3530   18.9520   65.5590 C.3   307  ALA307      0.1694
    150  C         15.3090   20.2720   64.7680 C.2   307  ALA307      0.2592
    151  O         16.0050   20.4280   63.7600 O.2   307  ALA307     -0.2718
    152  CB        14.3620   17.9430   64.9690 C.3   307  ALA307      0.0304
    153  N         14.5040   21.2210   65.2420 N.am  308  ASN308     -0.1974
    154  CA        14.3690   22.5050   64.5830 C.3   308  ASN308      0.1688
    155  C         15.1550   23.6560   65.1990 C.2   308  ASN308      0.2292
    156  O         14.8390   24.8300   64.9750 O.2   308  ASN308     -0.2864
    157  CB        12.8920   22.8640   64.4540 C.3   308  ASN308      0.1181
    158  CG        12.2520   22.1970   63.2510 C.2   308  ASN308      0.2629
    159  OD1       12.9430   21.8790   62.2940 O.2   308  ASN308     -0.2716
    160  ND2       10.9420   21.9710   63.2980 N.am  308  ASN308     -0.0877
    161  N         19.1190   24.9850   65.3920 N.3   310  LEU310     -0.1245
    162  CA        20.4230   24.7750   64.7640 C.3   310  LEU310      0.1561
    163  C         21.5740   25.3410   65.5940 C.2   310  LEU310      0.2260
    164  O         21.4280   26.3610   66.2750 O.2   310  LEU310     -0.2867
    165  CB        20.4370   25.3720   63.3560 C.3   310  LEU310      0.0270
    166  CG        19.4330   24.7350   62.3890 C.3   310  LEU310      0.0019
    167  CD1       19.4350   25.4990   61.0710 C.3   310  LEU310      0.0001
    168  CD2       19.7700   23.2640   62.1690 C.3   310  LEU310      0.0001
    169  N         14.8600   27.5640   63.8380 N.3   320  ALA320     -0.1231
    170  CA        14.6460   27.3280   62.4150 C.3   320  ALA320      0.1694
    171  C         13.2590   26.8080   62.0760 C.2   320  ALA320      0.2592
    172  O         12.4580   26.5130   62.9600 O.2   320  ALA320     -0.2718
    173  CB        15.6860   26.3410   61.9100 C.3   320  ALA320      0.0304
    174  N         12.9950   26.7110   60.7740 N.am  321  ASP321     -0.1974
    175  CA        11.7390   26.2050   60.2180 C.3   321  ASP321      0.1709
    176  C         10.4260   26.7290   60.7860 C.2   321  ASP321      0.2293
    177  O          9.4530   25.9870   60.8840 O.2   321  ASP321     -0.2864
    178  CB        11.7360   24.6770   60.2810 C.3   321  ASP321      0.1436
    179  CG        12.7250   24.0620   59.3180 C.2   321  ASP321      0.3671
    180  OD1       12.7780   24.5290   58.1630 O.co2 321  ASP321     -0.2456
    181  OD2       13.4510   23.1230   59.7060 O.co2 321  ASP321     -0.2456
@<TRIPOS>BOND
     1    62    61    2
     2    61    60    1
     3    35    34    2
     4    59    60    1
     5    21    19   am
     6    44    45    1
     7    44    43    1
     8    20    19    2
     9    60    63    1
    10    19    18    1
    11    45    46    2
    12    57    56    2
    13    56    55    1
    14    34    43   am
    15    34    33    1
    16    49    50    2
    17    49    48    1
    18    18    17    1
    19    47    48    1
    20    54    55    1
    21    63    64    1
    22    48    51    1
    23    64    65    1
    24    55    58    1
    25    33    36    1
    26    33    32    1
    27    75    76    1
    28    36    37    1
    29     1     2    1
    30    12    11    2
    31    29    28    2
    32    17    14    1
    33    78    77    2
    34    38    37   ar
    35    38    40   ar
    36    65    66    1
    37    32    28   am
    38    51    52    1
    39    51    53    1
    40    37    39   ar
    41    76    77    1
    42    76    79    1
    43    28    27    1
    44    14    13    1
    45    14    15    1
    46    11    13   am
    47    11    10    1
    48    77    82   am
    49     6     8    1
    50     6     5    1
    51     6     7    1
    52    40    42   ar
    53     2     5    1
    54     2     3    1
    55     9    10    2
    56     9     3    1
    57    81    79    1
    58    25    24    2
    59    66    67    1
    60    95    96    1
    61    95    92    1
    62    22    15   am
    63    22    23    1
    64     3     4    2
    65    79    80    1
    66    15    16    2
    67    39    41   ar
    68    96    97   ar
    69    96    98   ar
    70    82    83    1
    71    27    26    1
    72    27    30    1
    73    97    99   ar
    74    24    26   am
    75    24    23    1
    76    98   100   ar
    77    83    84    1
    78    83    86    1
    79    42    41   ar
    80    99   101   ar
    81    91    92    1
    82    91    84   am
    83   100   101   ar
    84   101   102    1
    85    92    93    1
    86    84    85    2
    87    31    30    1
    88    86    87    1
    89    93    94    2
    90    93   103   am
    91   180   179   ar
    92    87    88    1
    93   103   104    1
    94    73    72    1
    95   179   181   ar
    96   179   178    1
    97    88    89   ar
    98    88    90   ar
    99    71    70    2
   100    70    69    1
   101   105   104    1
   102   105   106    2
   103   104   107    1
   104   175   178    1
   105   175   174    1
   106   175   176    1
   107    72    69    1
   108    72    74    1
   109   174   171   am
   110   176   177    2
   111   108   107    1
   112   108   109    1
   113   167   166    1
   114    69    68    1
   115   109   110    1
   116   173   170    1
   117   171   170    1
   118   171   172    2
   119   168   166    1
   120   136   134   ar
   121   159   158    2
   122   166   165    1
   123   170   169    1
   124   112   111    1
   125   112   113    1
   126   147   145    1
   127   134   133    1
   128   134   135   ar
   129   158   160   am
   130   158   157    1
   131   165   162    1
   132   128   126   ar
   133   133   130    1
   134   113   115   am
   135   113   114    2
   136   115   116    1
   137   151   150    2
   138   145   146    1
   139   145   144    2
   140   119   116    1
   141   119   120    1
   142   157   154    1
   143   116   117    1
   144   154   155    1
   145   154   153    1
   146   126   127   ar
   147   126   125    1
   148   162   161    1
   149   162   163    1
   150   150   153   am
   151   150   149    1
   152   130   129    1
   153   130   131    1
   154   152   149    1
   155   156   155    2
   156   144   143    1
   157   132   131    2
   158   125   122    1
   159   149   148    1
   160   163   164    2
   161   117   118    2
   162   143   142    1
   163   142   141    1
   164   122   121    1
   165   122   123    1
   166   140   139    2
   167   123   124    2
   168   137   138    1
   169   141   138    1
   170   139   138    1
