@<TRIPOS>MOLECULE
tmp/2tclA00.pdb
 159 160 0 0 0
SMALL
GASTEIGER

@<TRIPOS>ATOM
      1  N         70.4570    8.2380    0.3710 N.3    77  GLY77      -0.1210
      2  CA        71.7400    8.4810    1.0080 C.3    77  GLY77       0.1956
      3  C         71.6840    9.6640    1.9590 C.2    77  GLY77       0.2612
      4  O         70.6010   10.1350    2.3620 O.2    77  GLY77      -0.2717
      5  N         72.8660   10.1450    2.3320 N.am   78  GLY78      -0.1942
      6  CA        72.9670   11.2810    3.2310 C.3    78  GLY78       0.2014
      7  C         72.2780   11.0010    4.5450 C.2    78  GLY78       0.2639
      8  O         72.5970   10.0120    5.2100 O.2    78  GLY78      -0.2714
      9  N         71.3800   11.8950    4.9350 N.am   79  ASN79      -0.1958
     10  CA        70.6200   11.7260    6.1580 C.3    79  ASN79       0.1819
     11  C         69.5080   10.7030    5.9410 C.2    79  ASN79       0.2621
     12  O         68.7570   10.7910    4.9690 O.2    79  ASN79      -0.2715
     13  CB        70.0570   13.0650    6.6170 C.3    79  ASN79       0.1195
     14  CG        71.1330   13.9640    7.1570 C.2    79  ASN79       0.2630
     15  OD1       71.7640   13.6530    8.1690 O.2    79  ASN79      -0.2716
     16  ND2       71.4140   15.0430    6.4440 N.am   79  ASN79      -0.0877
     17  N         69.4170    9.7420    6.8580 N.am   80  LEU80      -0.1963
     18  CA        68.4420    8.6730    6.7680 C.3    80  LEU80       0.1728
     19  C         67.1960    8.9410    7.5780 C.2    80  LEU80       0.2616
     20  O         66.0890    8.5190    7.1980 O.2    80  LEU80      -0.2715
     21  CB        69.0640    7.3680    7.2410 C.3    80  LEU80       0.0311
     22  CG        70.3680    6.9210    6.5790 C.3    80  LEU80       0.0022
     23  CD1       70.9080    5.6610    7.2540 C.3    80  LEU80       0.0001
     24  CD2       70.1440    6.6710    5.1170 C.3    80  LEU80       0.0001
     25  N         67.3660    9.6300    8.7020 N.am   81  ALA81      -0.1963
     26  CA        66.2450    9.9230    9.5860 C.3    81  ALA81       0.1728
     27  C         66.6670   10.8840   10.6960 C.2    81  ALA81       0.2616
     28  O         67.8500   11.1610   10.8610 O.2    81  ALA81      -0.2715
     29  CB        65.7400    8.6130   10.2000 C.3    81  ALA81       0.0334
     30  N         65.6960   11.4410   11.4060 N.am   82  HIS82      -0.1959
     31  CA        65.9530   12.3230   12.5410 C.3    82  HIS82       0.1787
     32  C         64.7970   12.2480   13.5360 C.2    82  HIS82       0.2620
     33  O         63.7010   11.7710   13.2050 O.2    82  HIS82      -0.2715
     34  CB        66.2760   13.7850   12.1310 C.3    82  HIS82       0.0785
     35  CG        65.2540   14.4480   11.2540 C.ar   82  HIS82       0.0821
     36  ND1       65.5580   15.1210   10.0930 N.ar   82  HIS82      -0.2267
     37  CD2       63.9150   14.6150   11.4300 C.ar   82  HIS82       0.1154
     38  CE1       64.4340   15.6710    9.6070 C.ar   82  HIS82       0.1986
     39  NE2       63.4040   15.3960   10.3810 N.ar   82  HIS82      -0.2212
     40  N         65.0590   12.6500   14.7710 N.am   83  ALA83      -0.1977
     41  CA        64.0350   12.6050   15.8040 C.3    83  ALA83       0.1597
     42  C         64.1810   13.7900   16.7440 C.2    83  ALA83       0.2287
     43  O         65.2590   14.3720   16.8550 O.2    83  ALA83      -0.2864
     44  CB        64.1240   11.2810   16.5850 C.3    83  ALA83       0.0319
     45  N         71.3530   -2.4210    2.9400 N.3   108  GLU108     -0.1231
     46  CA        71.0820   -1.0430    3.3320 C.3   108  GLU108      0.1699
     47  C         69.7120   -0.5840    2.8690 C.2   108  GLU108      0.2592
     48  O         69.3600   -0.8050    1.7150 O.2   108  GLU108     -0.2718
     49  CB        72.1660   -0.1370    2.7460 C.3   108  GLU108      0.0402
     50  CG        73.5690   -0.5430    3.2050 C.3   108  GLU108      0.1161
     51  CD        74.6880    0.2410    2.5460 C.2   108  GLU108      0.3649
     52  OE1       74.5430    0.6510    1.3700 O.co2 108  GLU108     -0.2457
     53  OE2       75.7330    0.4350    3.2120 O.co2 108  GLU108     -0.2457
     54  N         68.9080    0.0270    3.7410 N.am  109  TYR109     -0.1976
     55  CA        69.1700    0.3210    5.1470 C.3   109  TYR109      0.1639
     56  C         68.1320   -0.3870    6.0000 C.2   109  TYR109      0.2290
     57  O         66.9300   -0.2790    5.7500 O.2   109  TYR109     -0.2864
     58  CB        69.0720    1.8160    5.4000 C.3   109  TYR109      0.0560
     59  CG        70.1460    2.5590    4.7040 C.ar  109  TYR109     -0.0198
     60  CD1       71.4380    2.5390    5.2000 C.ar  109  TYR109     -0.0009
     61  CD2       69.9050    3.1940    3.4950 C.ar  109  TYR109     -0.0009
     62  CE1       72.4640    3.1380    4.5330 C.ar  109  TYR109      0.0417
     63  CE2       70.9360    3.8020    2.8060 C.ar  109  TYR109      0.0417
     64  CZ        72.2190    3.7550    3.3330 C.ar  109  TYR109      0.1957
     65  OH        73.2730    4.3130    2.6680 O.3   109  TYR109     -0.2866
     66  N         67.3070   -1.2200   12.6830 N.3   113  ARG113     -0.1231
     67  CA        68.5630   -0.6410   13.1430 C.3   113  ARG113      0.1694
     68  C         68.4870    0.8750   13.2570 C.2   113  ARG113      0.2591
     69  O         68.9720    1.4500   14.2240 O.2   113  ARG113     -0.2718
     70  CB        69.6940   -1.0220   12.1830 C.3   113  ARG113      0.0321
     71  CG        71.0240   -0.3480   12.4530 C.3   113  ARG113      0.0489
     72  CD        71.5640   -0.7100   13.8270 C.3   113  ARG113      0.2205
     73  NE        72.8860   -0.1280   14.0490 N.pl3 113  ARG113     -0.0865
     74  CZ        73.1080    1.1450   14.3780 C.cat 113  ARG113      0.5346
     75  NH1       72.1100    2.0030   14.5340 N.pl3 113  ARG113      0.1354
     76  NH2       74.3400    1.5680   14.5570 N.pl3 113  ARG113      0.1354
     77  N         67.8920    1.5190   12.2600 N.am  114  VAL114     -0.1980
     78  CA        67.7700    2.9690   12.2450 C.3   114  VAL114      0.1595
     79  C         66.7220    3.4440   13.2640 C.2   114  VAL114      0.2287
     80  O         66.8990    4.4830   13.9190 O.2   114  VAL114     -0.2864
     81  CB        67.4190    3.4520   10.8070 C.3   114  VAL114      0.0276
     82  CG1       67.2320    4.9730   10.7650 C.3   114  VAL114      0.0022
     83  CG2       68.5070    3.0190    9.8240 C.3   114  VAL114      0.0022
     84  N         68.0810    3.6360   16.8050 N.3   117  HIS117     -0.1226
     85  CA        68.8720    4.8600   16.9780 C.3   117  HIS117      0.1752
     86  C         67.9570    6.0670   17.2120 C.2   117  HIS117      0.2595
     87  O         68.1250    6.7990   18.1940 O.2   117  HIS117     -0.2718
     88  CB        69.7280    5.1300   15.7300 C.3   117  HIS117      0.0759
     89  CG        70.5120    6.4100   15.7960 C.ar  117  HIS117      0.0818
     90  ND1       71.7850    6.5120   16.3200 N.ar  117  HIS117     -0.2268
     91  CD2       70.1720    7.6670   15.4110 C.ar  117  HIS117      0.1154
     92  CE1       72.1750    7.7950   16.2480 C.ar  117  HIS117      0.1986
     93  NE2       71.2320    8.5370   15.7050 N.ar  117  HIS117     -0.2212
     94  N         66.9810    6.2650   16.3240 N.am  118  GLU118     -0.1979
     95  CA        66.0670    7.4050   16.4330 C.3   118  GLU118      0.1602
     96  C         65.2920    7.4690   17.7360 C.2   118  GLU118      0.2287
     97  O         65.1130    8.5540   18.2950 O.2   118  GLU118     -0.2864
     98  CB        65.0870    7.4540   15.2600 C.3   118  GLU118      0.0415
     99  CG        65.7330    7.5460   13.8730 C.3   118  GLU118      0.1163
    100  CD        66.8400    8.5920   13.7880 C.2   118  GLU118      0.3649
    101  OE1       66.7460    9.6450   14.4590 O.co2 118  GLU118     -0.2457
    102  OE2       67.8180    8.3650   13.0400 O.co2 118  GLU118     -0.2457
    103  N         66.9750    9.0800   20.6340 N.3   121  HIS121     -0.1241
    104  CA        66.8390   10.5430   20.6820 C.3   121  HIS121      0.1621
    105  C         65.4800   10.8980   21.2780 C.2   121  HIS121      0.2264
    106  O         65.3720   11.7960   22.1150 O.2   121  HIS121     -0.2867
    107  CB        66.9130   11.1650   19.2830 C.3   121  HIS121      0.0745
    108  CG        68.2760   11.1490   18.6680 C.ar  121  HIS121      0.0817
    109  ND1       69.4020   11.6740   19.2660 N.ar  121  HIS121     -0.2268
    110  CD2       68.6920   10.6730   17.4700 C.ar  121  HIS121      0.1154
    111  CE1       70.4450   11.5030   18.4330 C.ar  121  HIS121      0.1986
    112  NE2       70.0690   10.8980   17.3260 N.ar  121  HIS121     -0.2212
    113  N         74.2960   11.6540   20.9110 N.3   127  HIS127     -0.1241
    114  CA        75.1910   10.6920   20.2590 C.3   127  HIS127      0.1621
    115  C         76.3110   10.1130   21.0810 C.2   127  HIS127      0.2264
    116  O         76.7130   10.6850   22.0880 O.2   127  HIS127     -0.2867
    117  CB        75.7670   11.2910   18.9860 C.3   127  HIS127      0.0745
    118  CG        74.7580   11.4360   17.8990 C.ar  127  HIS127      0.0817
    119  ND1       74.6260   12.5610   17.1100 N.ar  127  HIS127     -0.2268
    120  CD2       73.7780   10.5890   17.4970 C.ar  127  HIS127      0.1154
    121  CE1       73.5860   12.3580   16.2810 C.ar  127  HIS127      0.1986
    122  NE2       73.0450   11.1750   16.4820 N.ar  127  HIS127     -0.2212
    123  N         75.7850    5.8690   17.8600 N.3   136  TYR136     -0.1228
    124  CA        76.8710    6.4030   17.0410 C.3   136  TYR136      0.1721
    125  C         76.1730    7.2460   15.9340 C.2   136  TYR136      0.2437
    126  O         75.1390    6.8300   15.4090 O.2   136  TYR136     -0.2733
    127  CB        77.6500    5.2260   16.4610 C.3   136  TYR136      0.0547
    128  CG        78.9140    5.5990   15.7650 C.ar  136  TYR136     -0.0200
    129  CD1       79.9470    6.2390   16.4460 C.ar  136  TYR136     -0.0009
    130  CD2       79.0730    5.3360   14.4080 C.ar  136  TYR136     -0.0009
    131  CE1       81.1180    6.5940   15.7920 C.ar  136  TYR136      0.0417
    132  CE2       80.2320    5.6860   13.7480 C.ar  136  TYR136      0.0417
    133  CZ        81.2450    6.3230   14.4420 C.ar  136  TYR136      0.1957
    134  OH        82.3780    6.6890   13.7690 O.3   136  TYR136     -0.2866
    135  N         76.7430    8.4080   15.5350 N.am  137  PRO137     -0.2718
    136  CA        76.1160    9.2590   14.5050 C.3   137  PRO137      0.1535
    137  C         75.9880    8.7620   13.0650 C.2   137  PRO137      0.2599
    138  O         75.3250    9.4170   12.2640 O.2   137  PRO137     -0.2715
    139  CB        76.9580   10.5430   14.5440 C.3   137  PRO137      0.0310
    140  CG        77.7430   10.4480   15.8320 C.3   137  PRO137      0.0237
    141  CD        78.0230    8.9890   15.9630 C.3   137  PRO137      0.0939
    142  N         76.6680    7.6680   12.7150 N.am  138  SER138     -0.1936
    143  CA        76.6240    7.0970   11.3550 C.3   138  SER138      0.2055
    144  C         76.0190    5.7030   11.3800 C.2   138  SER138      0.2643
    145  O         76.1440    4.9860   12.3820 O.2   138  SER138     -0.2714
    146  CB        78.0410    6.9560   10.7730 C.3   138  SER138      0.2130
    147  OG        78.5010    8.1540   10.1920 O.3   138  SER138     -0.2179
    148  N         75.4200    5.2920   10.2670 N.am  139  TYR139     -0.1973
    149  CA        74.8350    3.9530   10.1600 C.3   139  TYR139      0.1639
    150  C         75.8900    2.8410   10.0530 C.2   139  TYR139      0.2290
    151  O         76.8770    2.9610    9.3240 O.2   139  TYR139     -0.2864
    152  CB        73.9120    3.8810    8.9400 C.3   139  TYR139      0.0560
    153  CG        73.3170    2.5100    8.6560 C.ar  139  TYR139     -0.0198
    154  CD1       73.9620    1.6020    7.8190 C.ar  139  TYR139     -0.0009
    155  CD2       72.0610    2.1580    9.1530 C.ar  139  TYR139     -0.0009
    156  CE1       73.3600    0.3780    7.4790 C.ar  139  TYR139      0.0417
    157  CE2       71.4560    0.9430    8.8220 C.ar  139  TYR139      0.0417
    158  CZ        72.1070    0.0660    7.9860 C.ar  139  TYR139      0.1957
    159  OH        71.5020   -1.1160    7.6320 O.3   139  TYR139     -0.2866
@<TRIPOS>BOND
     1     1     2    1
     2     2     3    1
     3    52    51   ar
     4    48    47    2
     5     3     5   am
     6     3     4    2
     7     5     6    1
     8    51    50    1
     9    51    53   ar
    10    65    64    1
    11    49    50    1
    12    49    46    1
    13    63    64   ar
    14    63    61   ar
    15    47    46    1
    16    47    54   am
    17    45    46    1
    18     6     7    1
    19    64    62   ar
    20    61    59   ar
    21    54    55    1
    22    62    60   ar
    23     7     9   am
    24     7     8    2
    25    59    60   ar
    26    59    58    1
    27     9    10    1
    28    12    11    2
    29    24    22    1
    30    55    58    1
    31    55    56    1
    32    57    56    2
    33    11    10    1
    34    11    17   am
    35    10    13    1
    36    16    14   am
    37    22    21    1
    38    22    23    1
    39    13    14    1
    40    18    17    1
    41    18    21    1
    42    18    19    1
    43    14    15    2
    44    20    19    2
    45   156   154   ar
    46   156   158   ar
    47    19    25   am
    48   159   158    1
    49   154   153   ar
    50   158   157   ar
    51   153   152    1
    52   153   155   ar
    53    25    26    1
    54   157   155   ar
    55   152   149    1
    56   151   150    2
    57    26    29    1
    58    26    27    1
    59    38    36   ar
    60    38    39   ar
    61    83    81    1
    62   150   149    1
    63    36    35   ar
    64   149   148    1
    65   147   146    1
    66   148   144   am
    67    39    37   ar
    68    27    28    2
    69    27    30   am
    70    82    81    1
    71   146   143    1
    72    81    78    1
    73    35    37   ar
    74    35    34    1
    75   143   144    1
    76   143   142    1
    77   144   145    2
    78    30    31    1
    79    34    31    1
    80    70    71    1
    81    70    67    1
    82    78    77    1
    83    78    79    1
    84    77    68   am
    85   138   137    2
    86    71    72    1
    87    31    32    1
    88    66    67    1
    89   142   137   am
    90   102   100   ar
    91   137   136    1
    92    67    68    1
    93    33    32    2
    94    68    69    2
    95    79    80    2
    96    32    40   am
    97   132   130   ar
    98   132   133   ar
    99   134   133    1
   100   100    99    1
   101   100   101   ar
   102    72    73    1
   103    99    98    1
   104    73    74    2
   105    74    75    1
   106    74    76    1
   107   130   128   ar
   108   133   131   ar
   109   136   139    1
   110   136   135    1
   111   139   140    1
   112    40    41    1
   113    98    95    1
   114   126   125    2
   115    91    93   ar
   116    91    89   ar
   117   135   125   am
   118   135   141    1
   119    93    92   ar
   120    88    89    1
   121    88    85    1
   122   128   129   ar
   123   128   127    1
   124   131   129   ar
   125    89    90   ar
   126    41    44    1
   127    41    42    1
   128   140   141    1
   129   125   124    1
   130    92    90   ar
   131   121   122   ar
   132   121   119   ar
   133    94    95    1
   134    94    86   am
   135    95    96    1
   136   127   124    1
   137   122   120   ar
   138    42    43    2
   139    84    85    1
   140    85    86    1
   141   124   123    1
   142   119   118   ar
   143    86    87    2
   144   112   110   ar
   145   112   111   ar
   146   110   108   ar
   147   120   118   ar
   148    96    97    2
   149   118   117    1
   150   111   109   ar
   151   108   109   ar
   152   108   107    1
   153   117   114    1
   154   107   104    1
   155   114   113    1
   156   114   115    1
   157   103   104    1
   158   104   105    1
   159   115   116    2
   160   105   106    2
