@<TRIPOS>MOLECULE
tmp/2tddA00.pdb
 166 159 0 0 0
SMALL
GASTEIGER

@<TRIPOS>ATOM
      1  N         15.4290   34.2220  -41.9900 N.3    50  LYS50      -0.1231
      2  CA        16.5140   35.1620  -41.6840 C.3    50  LYS50       0.1693
      3  C         15.9870   36.3610  -40.8790 C.2    50  LYS50       0.2591
      4  O         14.9020   36.9160  -41.0540 O.2    50  LYS50      -0.2718
      5  CB        17.1800   35.6650  -42.9160 C.3    50  LYS50       0.0285
      6  CG        16.7780   36.9690  -43.5200 C.3    50  LYS50       0.0035
      7  CD        17.6830   37.3040  -44.6520 C.3    50  LYS50       0.0206
      8  CE        17.2950   38.7300  -44.8500 C.3    50  LYS50       0.1093
      9  NZ        17.9740   39.3360  -45.9780 N.3    50  LYS50      -0.1314
     10  N         16.7930   36.7580  -39.9170 N.am   51  LYS51      -0.1980
     11  CA        16.5590   37.8350  -38.9640 C.3    51  LYS51       0.1596
     12  C         16.4170   39.0320  -39.8500 C.2    51  LYS51       0.2287
     13  O         17.3820   39.3650  -40.5560 O.2    51  LYS51      -0.2864
     14  CB        17.7580   37.9520  -38.0970 C.3    51  LYS51       0.0298
     15  CG        17.9190   39.0010  -37.0260 C.3    51  LYS51       0.0038
     16  CD        16.8330   38.8430  -36.0300 C.3    51  LYS51       0.0206
     17  CE        17.3730   39.0990  -34.6270 C.3    51  LYS51       0.1093
     18  NZ        16.4010   38.7540  -33.5730 N.3    51  LYS51      -0.1314
     19  N         15.1000   42.9000  -39.1530 N.3    53  PRO53      -0.2116
     20  CA        14.7170   43.8040  -38.1000 C.3    53  PRO53       0.1372
     21  C         13.3580   44.4630  -38.3330 C.2    53  PRO53       0.2244
     22  O         13.1660   45.4490  -39.0640 O.2    53  PRO53      -0.2868
     23  CB        15.8300   44.7370  -38.0640 C.3    53  PRO53       0.0268
     24  CG        16.1950   44.9370  -39.5090 C.3    53  PRO53       0.0207
     25  CD        16.1460   43.4930  -39.9780 C.3    53  PRO53       0.0892
     26  N         13.0400   48.4340  -37.8960 N.3    56  LEU56      -0.1245
     27  CA        13.2610   49.4740  -38.8860 C.3    56  LEU56       0.1561
     28  C         12.0770   49.6550  -39.8200 C.2    56  LEU56       0.2260
     29  O         11.8750   50.6920  -40.4490 O.2    56  LEU56      -0.2867
     30  CB        14.4730   49.1670  -39.6710 C.3    56  LEU56       0.0270
     31  CG        15.7780   49.1160  -38.9410 C.3    56  LEU56       0.0019
     32  CD1       16.9530   49.2730  -39.9020 C.3    56  LEU56       0.0001
     33  CD2       15.9410   50.3270  -38.0460 C.3    56  LEU56       0.0001
     34  N         18.2140   53.9640  -42.7860 N.3    81  ILE81      -0.1231
     35  CA        17.9090   53.5570  -44.1680 C.3    81  ILE81       0.1692
     36  C         17.9890   54.7290  -45.1960 C.2    81  ILE81       0.2592
     37  O         18.4500   54.5440  -46.3220 O.2    81  ILE81      -0.2718
     38  CB        16.4530   52.8820  -44.1730 C.3    81  ILE81       0.0266
     39  CG1       16.3360   51.7830  -43.2030 C.3    81  ILE81       0.0019
     40  CG2       16.1660   52.2600  -45.5240 C.3    81  ILE81       0.0020
     41  CD1       14.8820   51.5200  -42.7330 C.3    81  ILE81       0.0001
     42  N         17.6310   55.9790  -44.8780 N.am   82  TRP82      -0.1976
     43  CA        17.5000   57.0450  -45.8650 C.3    82  TRP82       0.1640
     44  C         18.5430   58.1030  -45.8230 C.2    82  TRP82       0.2290
     45  O         18.4770   59.0700  -46.5640 O.2    82  TRP82      -0.2864
     46  CB        16.1980   57.7010  -45.6940 C.3    82  TRP82       0.0576
     47  CG        14.9940   56.9190  -46.2340 C.ar   82  TRP82       0.0006
     48  CD1       14.2670   56.0800  -45.4390 C.ar   82  TRP82       0.0946
     49  CD2       14.5110   56.9440  -47.5220 C.ar   82  TRP82       0.0152
     50  NE1       13.3570   55.5600  -46.2260 N.ar   82  TRP82      -0.2442
     51  CE2       13.4760   56.0410  -47.4650 C.ar   82  TRP82       0.0810
     52  CE3       14.8280   57.5890  -48.6970 C.ar   82  TRP82       0.0012
     53  CZ2       12.7480   55.7740  -48.5910 C.ar   82  TRP82       0.0191
     54  CZ3       14.0830   57.3250  -49.8180 C.ar   82  TRP82       0.0001
     55  CH2       13.0510   56.4190  -49.7660 C.ar   82  TRP82       0.0015
     56  N         21.5610   58.3880  -47.0490 N.3    84  GLU84      -0.1182
     57  CA        22.4260   58.7300  -48.1890 C.3    84  GLU84       0.1915
     58  C         21.7750   59.7030  -49.1700 C.2    84  GLU84       0.2634
     59  O         22.4930   60.3400  -49.9260 O.2    84  GLU84      -0.2714
     60  CB        22.8390   57.4760  -48.9210 C.2    84  GLU84       0.0085
     61  CG        24.1990   57.4170  -49.7380 C.2    84  GLU84       0.0835
     62  CD        24.6210   56.1710  -50.6160 C.2    84  GLU84       0.3877
     63  OE1       24.2640   56.0990  -51.8110 O.co2  84  GLU84      -0.2406
     64  OE2       25.3640   55.2940  -50.1260 O.co2  84  GLU84      -0.2406
     65  N         20.4650   59.9440  -49.1460 N.am   85  TRP85      -0.1973
     66  CA        19.8380   60.8690  -50.0730 C.3    85  TRP85       0.1640
     67  C         19.9820   62.2700  -49.5810 C.2    85  TRP85       0.2290
     68  O         20.4240   63.1510  -50.3240 O.2    85  TRP85      -0.2864
     69  CB        18.4270   60.5550  -50.2110 C.3    85  TRP85       0.0576
     70  CG        18.3600   59.1580  -50.8190 C.ar   85  TRP85       0.0006
     71  CD1       17.9100   58.1570  -50.0130 C.ar   85  TRP85       0.0946
     72  CD2       18.6550   58.7180  -52.1130 C.ar   85  TRP85       0.0152
     73  NE1       17.9040   57.1090  -50.7690 N.ar   85  TRP85      -0.2442
     74  CE2       18.3270   57.3800  -52.0100 C.ar   85  TRP85       0.0810
     75  CE3       19.1350   59.1830  -53.3210 C.ar   85  TRP85       0.0012
     76  CZ2       18.4520   56.5010  -53.0660 C.ar   85  TRP85       0.0191
     77  CZ3       19.2560   58.3050  -54.3820 C.ar   85  TRP85       0.0001
     78  CH2       18.9160   56.9760  -54.2690 C.ar   85  TRP85       0.0015
     79  N         23.5860   62.8620  -49.6410 N.3    88  GLU88      -0.1245
     80  CA        23.9340   63.0560  -51.0490 C.3    88  GLU88       0.1567
     81  C         23.7070   64.5460  -51.2440 C.2    88  GLU88       0.2260
     82  O         24.6660   65.2290  -51.6030 O.2    88  GLU88      -0.2867
     83  CB        23.0110   62.3080  -51.9380 C.3    88  GLU88       0.0388
     84  CG        23.6010   61.4380  -53.0950 C.3    88  GLU88       0.1160
     85  CD        22.8360   60.1270  -53.4290 C.2    88  GLU88       0.3649
     86  OE1       22.8780   59.1640  -52.6330 O.co2  88  GLU88      -0.2457
     87  OE2       22.2060   60.0830  -54.5000 O.co2  88  GLU88      -0.2457
     88  N         15.3650   58.8370  -56.5660 N.3   195  LEU195     -0.1245
     89  CA        14.7790   57.5160  -56.7790 C.3   195  LEU195      0.1561
     90  C         13.3570   57.9400  -57.1690 C.2   195  LEU195      0.2260
     91  O         12.7040   58.5990  -56.3480 O.2   195  LEU195     -0.2867
     92  CB        14.7390   56.7250  -55.5240 C.3   195  LEU195      0.0270
     93  CG        15.2620   55.3470  -55.5220 C.3   195  LEU195      0.0019
     94  CD1       14.7650   54.7530  -54.2020 C.3   195  LEU195      0.0001
     95  CD2       14.8320   54.5260  -56.7680 C.3   195  LEU195      0.0001
     96  N          9.8870   53.2150  -56.1720 N.3   198  CYS198     -0.1235
     97  CA         9.8490   51.8120  -56.4070 C.3   198  CYS198      0.1677
     98  C          8.4570   51.3770  -56.0380 C.2   198  CYS198      0.2270
     99  O          7.9360   50.5790  -56.8060 O.2   198  CYS198     -0.2867
    100  CB        10.7680   51.0910  -55.5500 C.3   198  CYS198      0.0956
    101  SG        12.4850   51.6150  -55.7800 S.3   198  CYS198     -0.0801
    102  N         14.3450   44.5320  -55.1630 N.3   221  ASP221     -0.1239
    103  CA        15.6230   43.8540  -54.9220 C.3   221  ASP221      0.1674
    104  C         15.2990   42.4940  -54.3510 C.2   221  ASP221      0.2266
    105  O         15.2170   42.4230  -53.1360 O.2   221  ASP221     -0.2867
    106  CB        16.4000   44.6290  -53.9260 C.3   221  ASP221      0.1410
    107  CG        17.9190   44.4150  -53.7480 C.2   221  ASP221      0.3668
    108  OD1       18.3400   43.2530  -53.5830 O.co2 221  ASP221     -0.2456
    109  OD2       18.6580   45.4350  -53.7500 O.co2 221  ASP221     -0.2456
    110  N         17.8370   41.5760  -50.5580 N.3   224  LEU224     -0.1231
    111  CA        17.9750   42.6360  -49.5680 C.3   224  LEU224      0.1693
    112  C         16.7240   43.5110  -49.4260 C.2   224  LEU224      0.2592
    113  O         16.4170   44.0060  -48.3300 O.2   224  LEU224     -0.2718
    114  CB        19.1100   43.5560  -49.8990 C.3   224  LEU224      0.0284
    115  CG        20.5270   43.1290  -49.8850 C.3   224  LEU224      0.0019
    116  CD1       21.4300   44.2710  -50.2330 C.3   224  LEU224      0.0001
    117  CD2       20.9000   42.6830  -48.4940 C.3   224  LEU224      0.0001
    118  N         15.9850   43.7170  -50.5350 N.am  225  GLY225     -0.1957
    119  CA        14.9190   44.6880  -50.5850 C.3   225  GLY225      0.1869
    120  C         13.5380   44.1100  -50.4550 C.2   225  GLY225      0.2309
    121  O         12.6960   44.6360  -49.7250 O.2   225  GLY225     -0.2863
    122  N         11.8400   43.1410  -46.6420 N.3   228  PHE228     -0.1241
    123  CA        11.4410   44.3000  -45.8950 C.3   228  PHE228      0.1605
    124  C         10.1470   44.8100  -46.5120 C.2   228  PHE228      0.2264
    125  O          9.1640   44.9690  -45.7820 O.2   228  PHE228     -0.2867
    126  CB        12.4570   45.3790  -45.9970 C.3   228  PHE228      0.0534
    127  CG        13.5460   45.6620  -44.9280 C.ar  228  PHE228     -0.0203
    128  CD1       14.5760   44.7760  -44.6270 C.ar  228  PHE228     -0.0042
    129  CD2       13.5430   46.9090  -44.3110 C.ar  228  PHE228     -0.0042
    130  CE1       15.5860   45.1450  -43.7460 C.ar  228  PHE228     -0.0003
    131  CE2       14.5480   47.2660  -43.4340 C.ar  228  PHE228     -0.0003
    132  CZ        15.5780   46.3870  -43.1440 C.ar  228  PHE228     -0.0000
    133  N         21.7360   36.9870  -42.6760 N.3   310  ILE310     -0.1231
    134  CA        22.6300   36.7090  -43.8480 C.3   310  ILE310      0.1692
    135  C         23.1300   38.0540  -44.4000 C.2   310  ILE310      0.2592
    136  O         22.5470   38.5670  -45.3580 O.2   310  ILE310     -0.2718
    137  CB        21.8830   35.9530  -45.0580 C.3   310  ILE310      0.0266
    138  CG1       21.0370   34.8190  -44.6290 C.3   310  ILE310      0.0019
    139  CG2       22.9880   35.5290  -46.0510 C.3   310  ILE310      0.0020
    140  CD1       20.6360   33.7820  -45.6760 C.3   310  ILE310      0.0001
    141  N         24.1030   38.7370  -43.7800 N.am  311  LYS311     -0.1966
    142  CA        24.5620   40.0540  -44.2500 C.3   311  LYS311      0.1728
    143  C         25.2180   39.8280  -45.6240 C.2   311  LYS311      0.2616
    144  O         25.8870   38.7980  -45.8220 O.2   311  LYS311     -0.2715
    145  CB        25.5490   40.6620  -43.2890 C.3   311  LYS311      0.0311
    146  CG        26.6550   39.7640  -42.6680 C.3   311  LYS311      0.0038
    147  CD        26.1680   38.8900  -41.4630 C.3   311  LYS311      0.0206
    148  CE        26.8770   37.5080  -41.3840 C.3   311  LYS311      0.1093
    149  NZ        25.9770   36.5610  -40.7520 N.3   311  LYS311     -0.1314
    150  N         24.9660   40.7290  -46.5770 N.am  312  ALA312     -0.1977
    151  CA        25.4560   40.5310  -47.9190 C.3   312  ALA312      0.1597
    152  C         25.4410   41.8570  -48.6190 C.2   312  ALA312      0.2287
    153  O         24.5030   42.6290  -48.3820 O.2   312  ALA312     -0.2864
    154  CB        24.5730   39.6630  -48.7250 C.3   312  ALA312      0.0319
    155  N         25.4190   45.4230  -50.2720 N.3   314  VAL314     -0.1231
    156  CA        24.6070   46.2450  -51.1390 C.3   314  VAL314      0.1692
    157  C         24.0610   47.3090  -50.2240 C.2   314  VAL314      0.2591
    158  O         23.6160   46.9360  -49.1340 O.2   314  VAL314     -0.2718
    159  CB        23.4620   45.4680  -51.8300 C.3   314  VAL314      0.0266
    160  CG1       22.1950   46.2660  -52.2570 C.3   314  VAL314      0.0020
    161  CG2       23.9930   44.6130  -52.9780 C.3   314  VAL314      0.0020
    162  N         24.3240   48.5580  -50.6600 N.am  315  ALA315     -0.1980
    163  CA        23.9390   49.8720  -50.1230 C.3   315  ALA315      0.1597
    164  C         24.8300   50.9640  -50.8280 C.2   315  ALA315      0.2287
    165  O         26.0250   50.7480  -51.0770 O.2   315  ALA315     -0.2864
    166  CB        24.1690   49.9840  -48.5910 C.3   315  ALA315      0.0319
@<TRIPOS>BOND
     1    90    89    1
     2    90    91    2
     3    99    98    2
     4    89    88    1
     5    89    92    1
     6    95    93    1
     7    97    96    1
     8    97    98    1
     9    97   100    1
    10   101   100    1
    11    92    93    1
    12    93    94    1
    13   102   103    1
    14   103   104    1
    15   103   106    1
    16    87    85   ar
    17    77    78   ar
    18    77    75   ar
    19   104   105    2
    20    78    76   ar
    21   106   107    1
    22   109   107   ar
    23   107   108   ar
    24    85    84    1
    25    85    86   ar
    26    75    72   ar
    27    84    83    1
    28    76    74   ar
    29   161   159    1
    30   160   159    1
    31    72    74   ar
    32    72    70   ar
    33    74    73   ar
    34    83    80    1
    35   159   156    1
    36    63    62   ar
    37    82    81    2
    38    81    80    1
    39   156   155    1
    40   156   157    1
    41   165   164    2
    42    80    79    1
    43   164   163    1
    44    70    69    1
    45    70    71   ar
    46    73    71   ar
    47   162   157   am
    48   162   163    1
    49    62    64   ar
    50    62    61    1
    51   119   118    1
    52   119   120    1
    53   110   111    1
    54   118   112   am
    55   120   121    2
    56    68    67    2
    57   116   115    1
    58   157   158    2
    59    69    66    1
    60   163   166    1
    61    66    67    1
    62    66    65    1
    63    59    58    2
    64   114   115    1
    65   114   111    1
    66   115   117    1
    67    54    55   ar
    68    54    52   ar
    69    55    53   ar
    70    61    60    2
    71   111   112    1
    72   112   113    2
    73    58    65   am
    74    58    57    1
    75    60    57    1
    76   154   151    1
    77    52    49   ar
    78   152   153    2
    79   152   151    1
    80    53    51   ar
    81    57    56    1
    82   151   150    1
    83    49    51   ar
    84    49    47   ar
    85    51    50   ar
    86   122   123    1
    87   150   143   am
    88    45    44    2
    89   124   123    1
    90   124   125    2
    91    37    36    2
    92    47    46    1
    93    47    48   ar
    94    50    48   ar
    95   139   137    1
    96   126   123    1
    97   126   127    1
    98     9     8    1
    99    43    44    1
   100    43    46    1
   101    43    42    1
   102   144   143    2
   103   140   138    1
   104   143   142    1
   105    40    38    1
   106   136   135    2
   107    36    42   am
   108    36    35    1
   109   137   138    1
   110   137   134    1
   111   127   128   ar
   112   127   129   ar
   113     8     7    1
   114     7     6    1
   115   128   130   ar
   116   135   134    1
   117   135   141   am
   118   129   131   ar
   119   142   141    1
   120   142   145    1
   121    38    35    1
   122    38    39    1
   123    35    34    1
   124   134   133    1
   125   130   132   ar
   126     6     5    1
   127   131   132   ar
   128   145   146    1
   129    39    41    1
   130     5     2    1
   131   146   147    1
   132     1     2    1
   133     2     3    1
   134   147   148    1
   135   148   149    1
   136     4     3    2
   137     3    10   am
   138    13    12    2
   139    29    28    2
   140    25    24    1
   141    25    19    1
   142    10    11    1
   143    32    31    1
   144    12    11    1
   145    28    27    1
   146    30    31    1
   147    30    27    1
   148    24    23    1
   149    19    20    1
   150    22    21    2
   151    11    14    1
   152    31    33    1
   153    27    26    1
   154    21    20    1
   155    20    23    1
   156    14    15    1
   157    15    16    1
   158    16    17    1
   159    17    18    1
