@<TRIPOS>MOLECULE
tmp/2tepB00.pdb
 96 88 0 0 0
SMALL
GASTEIGER

@<TRIPOS>ATOM
      1  N          5.9400   34.5350   20.9810 N.3    41  ASN41      -0.1240
      2  CA         7.3730   34.5420   20.6910 C.3    41  ASN41       0.1653
      3  C          8.2240   33.9880   21.8350 C.2    41  ASN41       0.2266
      4  O          9.3610   34.4120   22.0550 O.2    41  ASN41      -0.2867
      5  CB         7.8250   35.9660   20.3230 C.3    41  ASN41       0.1155
      6  CG         7.1000   36.5210   19.0960 C.2    41  ASN41       0.2627
      7  OD1        7.0410   37.7320   18.9060 O.2    41  ASN41      -0.2716
      8  ND2        6.5390   35.6450   18.2720 N.am   41  ASN41      -0.0877
      9  N         -0.0430   26.1280   15.2600 N.3    80  ASP80      -0.1239
     10  CA         0.7800   25.4060   14.3050 C.3    80  ASP80       0.1674
     11  C          1.9740   24.8310   15.0350 C.2    80  ASP80       0.2266
     12  O          2.5900   25.5060   15.8580 O.2    80  ASP80      -0.2867
     13  CB         1.2550   26.3280   13.1760 C.3    80  ASP80       0.1410
     14  CG         0.1020   26.9030   12.3570 C.2    80  ASP80       0.3668
     15  OD1       -1.0080   26.3180   12.3870 O.co2  80  ASP80      -0.2456
     16  OD2        0.3120   27.9360   11.6760 O.co2  80  ASP80      -0.2456
     17  N          5.1730   24.6250   15.6670 N.3    82  ALA82      -0.1231
     18  CA         6.3980   25.3510   15.3040 C.3    82  ALA82       0.1694
     19  C          7.1240   25.7520   16.5960 C.2    82  ALA82       0.2592
     20  O          6.4910   25.8240   17.6550 O.2    82  ALA82      -0.2718
     21  CB         6.0410   26.5890   14.4750 C.3    82  ALA82       0.0304
     22  N          8.4230   26.0430   16.5410 N.am   83  ASP83      -0.1974
     23  CA         9.2530   26.0050   15.3390 C.3    83  ASP83       0.1709
     24  C         10.2820   24.8780   15.3260 C.2    83  ASP83       0.2293
     25  O         10.8740   24.5970   14.2850 O.2    83  ASP83      -0.2864
     26  CB        10.0250   27.3170   15.2080 C.3    83  ASP83       0.1436
     27  CG         9.2130   28.4160   14.6080 C.2    83  ASP83       0.3671
     28  OD1        9.1060   28.4480   13.3660 O.co2  83  ASP83      -0.2456
     29  OD2        8.6910   29.2400   15.3790 O.co2  83  ASP83      -0.2456
     30  N         12.6410   37.5490   18.3370 N.3   101  ILE101     -0.1245
     31  CA        11.2650   37.3400   17.9000 C.3   101  ILE101      0.1561
     32  C         10.8900   35.8580   18.0150 C.2   101  ILE101      0.2260
     33  O          9.7450   35.4720   17.7690 O.2   101  ILE101     -0.2867
     34  CB        11.0230   37.8540   16.4350 C.3   101  ILE101      0.0252
     35  CG1       11.8250   37.0300   15.4220 C.3   101  ILE101      0.0019
     36  CG2       11.4130   39.3300   16.3250 C.3   101  ILE101      0.0019
     37  CD1       11.5280   37.3620   13.9590 C.3   101  ILE101      0.0001
     38  N         10.2420   32.3010   17.0400 N.3   103  GLY103     -0.1210
     39  CA         9.8990   31.8220   15.7200 C.3   103  GLY103      0.1956
     40  C         11.0400   31.0960   15.0400 C.2   103  GLY103      0.2612
     41  O         11.7860   30.3570   15.6830 O.2   103  GLY103     -0.2717
     42  N         11.1750   31.3130   13.7350 N.am  104  GLY104     -0.1956
     43  CA        12.2110   30.6700   12.9500 C.3   104  GLY104      0.1869
     44  C         13.6380   30.9940   13.3330 C.2   104  GLY104      0.2309
     45  O         14.5680   30.4320   12.7410 O.2   104  GLY104     -0.2863
     46  N          9.1520   23.9060   10.8610 N.3   125  TYR125     -0.1241
     47  CA         8.4740   24.9630   10.1300 C.3   125  TYR125      0.1605
     48  C          9.4290   25.5830    9.1310 C.2   125  TYR125      0.2264
     49  O         10.5190   26.0280    9.4900 O.2   125  TYR125     -0.2867
     50  CB         7.9010   26.0440   11.0380 C.3   125  TYR125      0.0534
     51  CG         7.0470   27.0460   10.2720 C.ar  125  TYR125     -0.0201
     52  CD1        5.6950   26.8170   10.0840 C.ar  125  TYR125     -0.0009
     53  CD2        7.6040   28.2180    9.7270 C.ar  125  TYR125     -0.0009
     54  CE1        4.9070   27.7120    9.3810 C.ar  125  TYR125      0.0417
     55  CE2        6.8200   29.1250    9.0200 C.ar  125  TYR125      0.0417
     56  CZ         5.4600   28.8650    8.8530 C.ar  125  TYR125      0.1957
     57  OH         4.6190   29.7670    8.2180 O.3   125  TYR125     -0.2866
     58  N         10.6790   28.3570    7.0380 N.3   127  ASN127     -0.1240
     59  CA        10.7820   29.8090    7.0060 C.3   127  ASN127      0.1653
     60  C         11.5080   30.1780    5.7290 C.2   127  ASN127      0.2266
     61  O         12.7460   30.1150    5.6580 O.2   127  ASN127     -0.2867
     62  CB        11.6180   30.3280    8.1830 C.3   127  ASN127      0.1155
     63  CG        10.9610   30.1110    9.5220 C.2   127  ASN127      0.2627
     64  OD1       11.2310   29.1220   10.2110 O.2   127  ASN127     -0.2716
     65  ND2       10.1210   31.0550    9.9250 N.am  127  ASN127     -0.0877
     66  N         12.2510   32.9430    4.6470 N.3   129  GLU129     -0.1245
     67  CA        13.1810   34.0370    4.9450 C.3   129  GLU129      0.1567
     68  C         14.5810   33.5860    5.3870 C.2   129  GLU129      0.2260
     69  O         15.4960   34.3980    5.4670 O.2   129  GLU129     -0.2867
     70  CB        12.5770   34.9900    5.9890 C.3   129  GLU129      0.0388
     71  CG        12.3340   34.3810    7.3740 C.3   129  GLU129      0.1160
     72  CD        10.9040   33.9080    7.5870 C.2   129  GLU129      0.3649
     73  OE1       10.2710   33.4160    6.6260 O.co2 129  GLU129     -0.2457
     74  OE2       10.4160   34.0220    8.7320 O.co2 129  GLU129     -0.2457
     75  N          6.0600   31.3210   17.8980 N.3   211  SER211     -0.1202
     76  CA         5.5900   32.6200   17.4480 C.3   211  SER211      0.2020
     77  C          4.2270   32.7610   18.0750 C.2   211  SER211      0.2619
     78  O          3.8740   32.0150   18.9770 O.2   211  SER211     -0.2717
     79  CB         5.4630   32.6650   15.9200 C.3   211  SER211      0.2103
     80  OG         4.4420   31.7950   15.4650 O.3   211  SER211     -0.2182
     81  N          3.4400   33.6800   17.5380 N.am  212  LEU212     -0.1965
     82  CA         2.0940   33.9500   18.0110 C.3   212  LEU212      0.1728
     83  C          1.1790   32.7740   17.6520 C.2   212  LEU212      0.2617
     84  O          0.4400   32.2800   18.4890 O.2   212  LEU212     -0.2715
     85  CB         1.6000   35.2420   17.3550 C.3   212  LEU212      0.0311
     86  CG         0.3000   35.9320   17.7710 C.3   212  LEU212      0.0022
     87  CD1        0.2920   37.3290   17.2180 C.3   212  LEU212      0.0001
     88  CD2       -0.9130   35.1810   17.2760 C.3   212  LEU212      0.0001
     89  N          1.2520   32.3210   16.4040 N.am  213  GLY213     -0.1940
     90  CA         0.4190   31.2250   15.9620 C.3   213  GLY213      0.2014
     91  C          1.1200   29.8850   15.9870 C.2   213  GLY213      0.2639
     92  O          0.4760   28.8380   15.8680 O.2   213  GLY213     -0.2714
     93  N          2.4370   29.9050   16.1500 N.am  214  GLY214     -0.1954
     94  CA         3.2080   28.6740   16.1800 C.3   214  GLY214      0.1869
     95  C          3.6570   28.3130   17.5820 C.2   214  GLY214      0.2309
     96  O          4.4970   28.9990   18.1820 O.2   214  GLY214     -0.2863
@<TRIPOS>BOND
     1    66    67    1
     2    67    68    1
     3    67    70    1
     4    68    69    2
     5    61    60    2
     6    60    59    1
     7    70    71    1
     8    73    72   ar
     9    59    58    1
    10    59    62    1
    11    71    72    1
    12    72    74   ar
    13    62    63    1
    14    57    56    1
    15    56    55   ar
    16    56    54   ar
    17    55    53   ar
    18    48    49    2
    19    48    47    1
    20    54    52   ar
    21    63    65   am
    22    63    64    2
    23    53    51   ar
    24    52    51   ar
    25    47    46    1
    26    47    50    1
    27    51    50    1
    28    16    14   ar
    29    14    15   ar
    30    14    13    1
    31    45    44    2
    32    43    44    1
    33    43    42    1
    34    13    10    1
    35    28    27   ar
    36    42    40   am
    37    37    35    1
    38    25    24    2
    39    10    11    1
    40    10     9    1
    41    21    18    1
    42    27    26    1
    43    27    29   ar
    44    11    12    2
    45    40    41    2
    46    40    39    1
    47    26    23    1
    48    18    17    1
    49    18    19    1
    50    24    23    1
    51    23    22    1
    52    35    34    1
    53    80    79    1
    54    39    38    1
    55    92    91    2
    56    79    76    1
    57    90    91    1
    58    90    89    1
    59    91    93   am
    60    93    94    1
    61    94    95    1
    62    36    34    1
    63    89    83   am
    64    34    31    1
    65    22    19   am
    66    19    20    2
    67    87    86    1
    68    88    86    1
    69    85    86    1
    70    85    82    1
    71    76    75    1
    72    76    77    1
    73    81    82    1
    74    81    77   am
    75    95    96    2
    76    83    82    1
    77    83    84    2
    78    33    32    2
    79    31    32    1
    80    31    30    1
    81    77    78    2
    82     8     6   am
    83     7     6    2
    84     6     5    1
    85     5     2    1
    86     2     1    1
    87     2     3    1
    88     3     4    2
