@<TRIPOS>MOLECULE
tmp/2tgdA00.pdb
 86 87 0 0 0
SMALL
GASTEIGER

@<TRIPOS>ATOM
      1  N         11.3870   29.4220   20.4730 N.3    23  PHE23      -0.1227
      2  CA        11.1420   28.6050   21.6640 C.3    23  PHE23       0.1736
      3  C         12.4330   28.2710   22.5060 C.2    23  PHE23       0.2595
      4  O         12.3390   27.6690   23.5760 O.2    23  PHE23      -0.2718
      5  CB        10.3360   27.3630   21.2600 C.3    23  PHE23       0.0547
      6  CG        11.1250   26.3880   20.5500 C.ar   23  PHE23      -0.0202
      7  CD1       11.2660   26.5070   19.1840 C.ar   23  PHE23      -0.0042
      8  CD2       11.7820   25.3940   21.2820 C.ar   23  PHE23      -0.0042
      9  CE1       12.0740   25.5950   18.5400 C.ar   23  PHE23      -0.0003
     10  CE2       12.5900   24.4910   20.6050 C.ar   23  PHE23      -0.0003
     11  CZ        12.7500   24.6060   19.2390 C.ar   23  PHE23      -0.0000
     12  N         13.6530   28.6330   22.1120 N.am   24  CYS24      -0.1970
     13  CA        14.8130   28.2850   22.9210 C.3    24  CYS24       0.1712
     14  C         16.0000   28.9160   22.1340 C.2    24  CYS24       0.2296
     15  O         15.9190   29.4170   20.9540 O.2    24  CYS24      -0.2864
     16  CB        15.1560   26.7940   22.9970 C.3    24  CYS24       0.0983
     17  SG        14.2500   25.8580   24.1660 S.3    24  CYS24      -0.0798
     18  N         16.2700   19.6750   26.9300 N.3    39  HIS39      -0.1226
     19  CA        14.8860   20.0480   27.2360 C.3    39  HIS39       0.1752
     20  C         14.2650   20.7590   26.0560 C.2    39  HIS39       0.2596
     21  O         13.0700   20.9750   25.9910 O.2    39  HIS39      -0.2718
     22  CB        14.8770   21.1040   28.3390 C.3    39  HIS39       0.0759
     23  CG        13.6270   21.0890   29.0820 C.ar   39  HIS39       0.0818
     24  ND1       13.4040   21.8680   30.2290 N.ar   39  HIS39      -0.2268
     25  CD2       12.4740   20.3830   28.8860 C.ar   39  HIS39       0.1154
     26  CE1       12.1850   21.5910   30.6770 C.ar   39  HIS39       0.1986
     27  NE2       11.6300   20.7170   29.8690 N.ar   39  HIS39      -0.2212
     28  N         15.0860   21.3040   25.2260 N.am   40  CYS40      -0.1970
     29  CA        14.5650   22.0540   24.1440 C.3    40  CYS40       0.1712
     30  C         14.2090   21.1230   22.9860 C.2    40  CYS40       0.2296
     31  O         13.9230   21.5910   21.8720 O.2    40  CYS40      -0.2864
     32  CB        15.7700   22.9290   23.6530 C.3    40  CYS40       0.0983
     33  SG        15.6710   24.4290   24.6030 S.3    40  CYS40      -0.0798
     34  N         14.4110   34.6770   32.6000 N.3   172  CYS172     -0.1221
     35  CA        13.2080   34.1420   33.2340 C.3   172  CYS172      0.1808
     36  C         12.5410   33.0920   32.4140 C.2   172  CYS172      0.2601
     37  O         12.7340   31.8780   32.6330 O.2   172  CYS172     -0.2717
     38  CB        12.2840   35.2940   33.6490 C.3   172  CYS172      0.0970
     39  SG        12.0770   35.4610   35.4630 S.3   172  CYS172     -0.0800
     40  N         12.1160   33.5210   31.2560 N.am  173  GLN173     -0.1965
     41  CA        11.8980   32.5420   30.2190 C.3   173  GLN173      0.1733
     42  C         12.4800   32.9570   28.8750 C.2   173  GLN173      0.2617
     43  O         13.5280   33.6360   28.7980 O.2   173  GLN173     -0.2715
     44  CB        10.5070   31.9490   30.1640 C.3   173  GLN173      0.0408
     45  CG         9.3960   32.9670   30.1420 C.3   173  GLN173      0.0908
     46  CD         9.0480   33.2350   28.6890 C.2   173  GLN173      0.2608
     47  OE1        9.5280   34.2950   28.1430 O.2   173  GLN173     -0.2717
     48  NE2        8.2820   32.3560   28.0440 N.am  173  GLN173     -0.0878
     49  N         11.9690   32.2270   27.9130 N.am  174  GLY174     -0.1940
     50  CA        12.5570   32.1070   26.6240 C.3   174  GLY174      0.2014
     51  C         14.0210   31.8540   26.7880 C.2   174  GLY174      0.2639
     52  O         14.7550   32.0260   25.7500 O.2   174  GLY174     -0.2714
     53  N         14.5680   31.4430   27.8700 N.am  175  ASP175     -0.1957
     54  CA        15.9640   31.4140   27.5750 C.3   175  ASP175      0.1840
     55  C         16.6620   30.0620   27.6510 C.2   175  ASP175      0.2622
     56  O         17.8310   29.9580   27.3560 O.2   175  ASP175     -0.2715
     57  CB        16.6560   32.5850   28.2520 C.3   175  ASP175      0.1450
     58  CG        16.0430   33.9900   28.1540 C.2   175  ASP175      0.3671
     59  OD1       15.0150   34.2430   27.4440 O.co2 175  ASP175     -0.2456
     60  OD2       16.6750   34.8640   28.8420 O.co2 175  ASP175     -0.2456
     61  N         15.9580   28.9880   27.9020 N.am  176  SER176     -0.1950
     62  CA        16.4940   27.6500   27.8590 C.3   176  SER176      0.1924
     63  C         17.2400   27.4440   26.5590 C.2   176  SER176      0.2314
     64  O         16.6890   27.7310   25.4660 O.2   176  SER176     -0.2863
     65  CB        15.3900   26.5980   27.9790 C.3   176  SER176      0.2116
     66  OG        14.5350   26.7610   29.1150 O.3   176  SER176     -0.2180
     67  N         19.6000   26.0820   31.8250 N.3   191  SER191     -0.1202
     68  CA        18.7940   24.8020   31.9770 C.3   191  SER191      0.2020
     69  C         17.6130   24.8690   32.8300 C.2   191  SER191      0.2618
     70  O         16.5700   24.5540   32.3600 O.2   191  SER191     -0.2717
     71  CB        19.6680   23.7650   32.4910 C.3   191  SER191      0.2103
     72  OG        18.9130   22.6860   32.7530 O.3   191  SER191     -0.2182
     73  N         17.6820   25.4660   33.9880 N.am  192  TRP192     -0.1975
     74  CA        16.4650   25.5860   34.7630 C.3   192  TRP192      0.1640
     75  C         16.6230   26.5550   35.8340 C.2   192  TRP192      0.2290
     76  O         17.6740   27.1520   36.1070 O.2   192  TRP192     -0.2864
     77  CB        16.0110   24.2710   35.4520 C.3   192  TRP192      0.0576
     78  CG        16.9400   23.4160   36.2930 C.ar  192  TRP192      0.0006
     79  CD1       17.8780   22.6040   35.8010 C.ar  192  TRP192      0.0946
     80  CD2       16.9820   23.2210   37.7790 C.ar  192  TRP192      0.0152
     81  NE1       18.5180   21.9360   36.9050 N.ar  192  TRP192     -0.2442
     82  CE2       17.9610   22.2700   38.0520 C.ar  192  TRP192      0.0810
     83  CE3       16.2480   23.7070   38.8930 C.ar  192  TRP192      0.0012
     84  CZ2       18.3010   21.7680   39.3850 C.ar  192  TRP192      0.0191
     85  CZ3       16.4940   23.2160   40.2260 C.ar  192  TRP192      0.0001
     86  CH2       17.4870   22.2890   40.4660 C.ar  192  TRP192      0.0015
@<TRIPOS>BOND
     1     9     7   ar
     2     9    11   ar
     3     7     6   ar
     4    11    10   ar
     5     1     2    1
     6     6     5    1
     7     6     8   ar
     8    10     8   ar
     9    15    14    2
    10     5     2    1
    11     2     3    1
    12    31    30    2
    13    12     3   am
    14    12    13    1
    15    14    13    1
    16     3     4    2
    17    13    16    1
    18    30    29    1
    19    16    17    1
    20    32    29    1
    21    32    33    1
    22    29    28    1
    23    17    33    1
    24    28    20   am
    25    64    63    2
    26    52    51    2
    27    21    20    2
    28    20    19    1
    29    63    62    1
    30    50    51    1
    31    50    49    1
    32    51    53   am
    33    18    19    1
    34    19    22    1
    35    56    55    2
    36    59    58   ar
    37    54    55    1
    38    54    53    1
    39    54    57    1
    40    55    61   am
    41    62    61    1
    42    62    65    1
    43    49    42   am
    44    65    66    1
    45    48    46   am
    46    47    46    2
    47    58    57    1
    48    58    60   ar
    49    22    23    1
    50    46    45    1
    51    43    42    2
    52    42    41    1
    53    25    23   ar
    54    25    27   ar
    55    23    24   ar
    56    27    26   ar
    57    45    44    1
    58    44    41    1
    59    41    40    1
    60    24    26   ar
    61    40    36   am
    62    67    68    1
    63    68    71    1
    64    68    69    1
    65    70    69    2
    66    36    37    2
    67    36    35    1
    68    71    72    1
    69    34    35    1
    70    69    73   am
    71    35    38    1
    72    38    39    1
    73    73    74    1
    74    74    77    1
    75    74    75    1
    76    77    78    1
    77    79    78   ar
    78    79    81   ar
    79    75    76    2
    80    78    80   ar
    81    81    82   ar
    82    80    82   ar
    83    80    83   ar
    84    82    84   ar
    85    83    85   ar
    86    84    86   ar
    87    85    86   ar
