@<TRIPOS>MOLECULE
tmp/2tmkB00.pdb
 175 168 0 0 0
SMALL
GASTEIGER

@<TRIPOS>ATOM
      1  N         -3.6920   -3.1750    6.9910 N.3    12  ASP12      -0.1239
      2  CA        -2.3170   -3.5450    6.6940 C.3    12  ASP12       0.1674
      3  C         -2.2070   -5.0570    6.8920 C.2    12  ASP12       0.2266
      4  O         -2.6220   -5.5870    7.9320 O.2    12  ASP12      -0.2867
      5  CB        -1.3540   -2.8200    7.6410 C.3    12  ASP12       0.1410
      6  CG        -1.5810   -1.3180    7.6700 C.2    12  ASP12       0.3668
      7  OD1       -2.5340   -0.8810    8.3560 O.co2  12  ASP12      -0.2456
      8  OD2       -0.8220   -0.5800    6.9920 O.co2  12  ASP12      -0.2456
      9  N         -3.5410   -6.7740    0.3590 N.3    16  LYS16      -0.1245
     10  CA        -3.7710   -5.5970   -0.4750 C.3    16  LYS16       0.1561
     11  C         -2.6520   -5.2920   -1.4870 C.2    16  LYS16       0.2260
     12  O         -2.8980   -5.2500   -2.6910 O.2    16  LYS16      -0.2867
     13  CB        -4.0460   -4.4020    0.4490 C.3    16  LYS16       0.0271
     14  CG        -4.1960   -3.0610   -0.2090 C.3    16  LYS16       0.0035
     15  CD        -4.4770   -1.9920    0.8330 C.3    16  LYS16       0.0206
     16  CE        -3.4310   -2.0050    1.9390 C.3    16  LYS16       0.1093
     17  NZ        -2.0360   -1.8800    1.4210 N.3    16  LYS16      -0.1314
     18  N          0.6950    3.9200   -5.2930 N.3    35  LYS35      -0.1231
     19  CA         0.6550    3.6270   -3.8710 C.3    35  LYS35       0.1693
     20  C          0.4820    4.8840   -3.0310 C.2    35  LYS35       0.2592
     21  O          1.1430    5.8850   -3.2620 O.2    35  LYS35      -0.2718
     22  CB         1.9550    2.9340   -3.4390 C.3    35  LYS35       0.0285
     23  CG         2.0770    2.7030   -1.9280 C.3    35  LYS35       0.0035
     24  CD         1.5410    1.3380   -1.5200 C.3    35  LYS35       0.0206
     25  CE         1.0690    1.3070   -0.0670 C.3    35  LYS35       0.1093
     26  NZ        -0.2980    1.8910    0.0810 N.3    35  LYS35      -0.1314
     27  N         -0.4240    4.8300   -2.0630 N.am   36  PHE36      -0.1963
     28  CA        -0.6250    5.9490   -1.1520 C.3    36  PHE36       0.1756
     29  C         -0.4540    5.4660    0.2960 C.2    36  PHE36       0.2461
     30  O         -0.9680    4.4020    0.6640 O.2    36  PHE36      -0.2730
     31  CB        -1.9910    6.5980   -1.3730 C.3    36  PHE36       0.0574
     32  CG        -2.0100    7.5880   -2.5030 C.ar   36  PHE36      -0.0200
     33  CD1       -1.1990    8.7220   -2.4630 C.ar   36  PHE36      -0.0042
     34  CD2       -2.8240    7.3860   -3.6110 C.ar   36  PHE36      -0.0042
     35  CE1       -1.2030    9.6400   -3.5120 C.ar   36  PHE36      -0.0003
     36  CE2       -2.8350    8.3020   -4.6680 C.ar   36  PHE36      -0.0003
     37  CZ        -2.0220    9.4310   -4.6170 C.ar   36  PHE36      -0.0000
     38  N          0.3450    6.1890    1.1100 N.am   37  PRO37      -0.2727
     39  CA         1.0210    7.4520    0.7820 C.3    37  PRO37       0.1402
     40  C          2.1460    7.3150   -0.2540 C.2    37  PRO37       0.2269
     41  O          2.8030    6.2800   -0.3330 O.2    37  PRO37      -0.2865
     42  CB         1.5770    7.8990    2.1420 C.3    37  PRO37       0.0296
     43  CG         1.8770    6.6000    2.8200 C.3    37  PRO37       0.0237
     44  CD         0.6350    5.7990    2.5000 C.3    37  PRO37       0.0939
     45  N          5.4130    8.1660   -0.7740 N.3    39  ARG39      -0.1245
     46  CA         6.5700    8.6160    0.0060 C.3    39  ARG39       0.1563
     47  C          7.7680    9.2650   -0.6910 C.2    39  ARG39       0.2260
     48  O          8.6820    9.7410   -0.0090 O.2    39  ARG39      -0.2867
     49  CB         7.0730    7.4700    0.8900 C.3    39  ARG39       0.0307
     50  CG         6.0200    6.9000    1.8140 C.3    39  ARG39       0.0489
     51  CD         6.5310    5.6990    2.5630 C.3    39  ARG39       0.2205
     52  NE         5.4510    4.9650    3.2140 N.pl3  39  ARG39      -0.0865
     53  CZ         5.5380    4.4250    4.4240 C.cat  39  ARG39       0.5346
     54  NH1        6.6470    4.5440    5.1280 N.pl3  39  ARG39       0.1354
     55  NH2        4.5560    3.6790    4.8880 N.pl3  39  ARG39       0.1354
     56  N          5.3730    8.3270   10.2430 N.3    51  LEU51      -0.1245
     57  CA         5.0900    6.9070   10.3420 C.3    51  LEU51       0.1561
     58  C          6.2180    6.0320   10.8670 C.2    51  LEU51       0.2260
     59  O          5.9590    5.0140   11.4980 O.2    51  LEU51      -0.2867
     60  CB         4.6330    6.3730    8.9900 C.3    51  LEU51       0.0270
     61  CG         3.2840    6.8900    8.5190 C.3    51  LEU51       0.0019
     62  CD1        3.0110    6.3290    7.1510 C.3    51  LEU51       0.0001
     63  CD2        2.1770    6.4990    9.4990 C.3    51  LEU51       0.0001
     64  N         -1.6100   13.9880    4.5610 N.3    67  PHE67      -0.1241
     65  CA        -2.0300   12.8010    3.8170 C.3    67  PHE67       0.1605
     66  C         -2.9490   13.1640    2.6430 C.2    67  PHE67       0.2264
     67  O         -2.9020   12.5330    1.5850 O.2    67  PHE67      -0.2867
     68  CB        -2.7600   11.8240    4.7410 C.3    67  PHE67       0.0534
     69  CG        -1.8670   10.8090    5.3910 C.ar   67  PHE67      -0.0203
     70  CD1       -1.2290    9.8440    4.6310 C.ar   67  PHE67      -0.0042
     71  CD2       -1.7200   10.7750    6.7750 C.ar   67  PHE67      -0.0042
     72  CE1       -0.4680    8.8580    5.2360 C.ar   67  PHE67      -0.0003
     73  CE2       -0.9600    9.7930    7.3800 C.ar   67  PHE67      -0.0003
     74  CZ        -0.3360    8.8340    6.6110 C.ar   67  PHE67      -0.0000
     75  N         -2.1880   13.4420   -1.8480 N.3    71  ARG71      -0.1245
     76  CA        -3.0130   12.9340   -2.9390 C.3    71  ARG71       0.1563
     77  C         -3.2560   14.0500   -3.9440 C.2    71  ARG71       0.2260
     78  O         -3.3010   13.8130   -5.1510 O.2    71  ARG71      -0.2867
     79  CB        -4.3600   12.4390   -2.4190 C.3    71  ARG71       0.0307
     80  CG        -4.2870   11.1460   -1.6610 C.3    71  ARG71       0.0489
     81  CD        -5.6680   10.6390   -1.3290 C.3    71  ARG71       0.2205
     82  NE        -6.2140   11.1930   -0.0910 N.pl3  71  ARG71      -0.0865
     83  CZ        -5.7750   10.8940    1.1230 C.cat  71  ARG71       0.5346
     84  NH1       -4.7400   10.0890    1.2780 N.pl3  71  ARG71       0.1354
     85  NH2       -6.3530   11.4370    2.1770 N.pl3  71  ARG71       0.1354
     86  N         -4.5220    2.0540   -1.6240 N.3    92  ARG92      -0.1231
     87  CA        -4.9670    3.0550   -0.6450 C.3    92  ARG92       0.1694
     88  C         -5.2520    4.3840   -1.3370 C.2    92  ARG92       0.2592
     89  O         -4.6810    4.6950   -2.3890 O.2    92  ARG92      -0.2718
     90  CB        -3.9640    3.2780    0.5070 C.3    92  ARG92       0.0321
     91  CG        -3.7160    2.0940    1.4590 C.3    92  ARG92       0.0489
     92  CD        -2.9620    2.5550    2.7190 C.3    92  ARG92       0.2205
     93  NE        -2.5720    1.4580    3.6040 N.pl3  92  ARG92      -0.0865
     94  CZ        -3.4100    0.7380    4.3460 C.cat  92  ARG92       0.5346
     95  NH1       -4.7080    0.9810    4.3360 N.pl3  92  ARG92       0.1354
     96  NH2       -2.9480   -0.2420    5.0990 N.pl3  92  ARG92       0.1354
     97  N         -6.1420    5.1640   -0.7410 N.am   93  TYR93      -0.1976
     98  CA        -6.5180    6.4510   -1.2820 C.3    93  TYR93       0.1639
     99  C         -7.3010    7.2150   -0.1970 C.2    93  TYR93       0.2290
    100  O         -6.9240    7.2040    0.9790 O.2    93  TYR93      -0.2864
    101  CB        -7.3710    6.2170   -2.5390 C.3    93  TYR93       0.0560
    102  CG        -7.5800    7.4160   -3.4540 C.ar   93  TYR93      -0.0198
    103  CD1       -6.5140    8.2220   -3.8450 C.ar   93  TYR93      -0.0009
    104  CD2       -8.8420    7.6990   -3.9770 C.ar   93  TYR93      -0.0009
    105  CE1       -6.7020    9.2820   -4.7450 C.ar   93  TYR93       0.0417
    106  CE2       -9.0380    8.7410   -4.8650 C.ar   93  TYR93       0.0417
    107  CZ        -7.9640    9.5310   -5.2500 C.ar   93  TYR93       0.1957
    108  OH        -8.1490   10.5640   -6.1510 O.3    93  TYR93      -0.2866
    109  N         -8.7590    5.1830    3.0970 N.3    96  SER96      -0.1202
    110  CA        -7.7840    4.9750    4.1730 C.3    96  SER96       0.2020
    111  C         -7.5810    6.2870    4.9180 C.2    96  SER96       0.2619
    112  O         -7.4320    6.2990    6.1310 O.2    96  SER96      -0.2717
    113  CB        -6.4280    4.5420    3.6220 C.3    96  SER96       0.2103
    114  OG        -6.3770    3.1510    3.4080 O.3    96  SER96      -0.2182
    115  N         -7.5340    7.3900    4.1720 N.am   97  GLY97      -0.1956
    116  CA        -7.3440    8.7060    4.7670 C.3    97  GLY97       0.1869
    117  C         -8.3520    9.0400    5.8520 C.2    97  GLY97       0.2309
    118  O         -7.9870    9.4830    6.9380 O.2    97  GLY97      -0.2863
    119  N         -8.3000    5.7740    9.0260 N.3   100  TYR100     -0.1227
    120  CA        -7.1950    5.8020    9.9820 C.3   100  TYR100      0.1736
    121  C         -7.1920    7.0360   10.8890 C.2   100  TYR100      0.2596
    122  O         -6.7920    6.9620   12.0490 O.2   100  TYR100     -0.2718
    123  CB        -5.8510    5.6430    9.2640 C.3   100  TYR100      0.0548
    124  CG        -5.6050    4.2260    8.7810 C.ar  100  TYR100     -0.0200
    125  CD1       -6.3180    3.7040    7.7020 C.ar  100  TYR100     -0.0009
    126  CD2       -4.6860    3.4000    9.4230 C.ar  100  TYR100     -0.0009
    127  CE1       -6.1260    2.3950    7.2770 C.ar  100  TYR100      0.0417
    128  CE2       -4.4860    2.0900    9.0080 C.ar  100  TYR100      0.0417
    129  CZ        -5.2090    1.5940    7.9340 C.ar  100  TYR100      0.1957
    130  OH        -5.0130    0.3040    7.5090 O.3   100  TYR100     -0.2866
    131  N         -7.6580    8.1670   10.3750 N.am  101  SER101     -0.1952
    132  CA        -7.7090    9.3780   11.1870 C.3   101  SER101      0.1924
    133  C         -8.9210    9.4160   12.1190 C.2   101  SER101      0.2314
    134  O         -8.7940    9.7950   13.2850 O.2   101  SER101     -0.2863
    135  CB        -7.6810   10.6360   10.3160 C.3   101  SER101      0.2116
    136  OG        -6.3480   10.9750    9.9650 O.3   101  SER101     -0.2180
    137  N          5.8010    0.8720   12.0640 N.3   137  GLU137     -0.1245
    138  CA         5.1470    2.1490   11.8890 C.3   137  GLU137      0.1567
    139  C          4.0490    2.4720   12.9180 C.2   137  GLU137      0.2260
    140  O          3.3940    1.5820   13.4660 O.2   137  GLU137     -0.2867
    141  CB         4.6640    2.2710   10.4350 C.3   137  GLU137      0.0388
    142  CG         5.8220    2.1950    9.4230 C.3   137  GLU137      0.1160
    143  CD         5.4230    2.4490    7.9770 C.2   137  GLU137      0.3649
    144  OE1        4.2190    2.5090    7.6530 O.co2 137  GLU137     -0.2457
    145  OE2        6.3370    2.5870    7.1370 O.co2 137  GLU137     -0.2457
    146  N          0.8300    3.3950   13.2830 N.3   139  TYR139     -0.1227
    147  CA        -0.5020    2.7990   13.4140 C.3   139  TYR139      0.1736
    148  C         -0.5170    1.2680   13.4500 C.2   139  TYR139      0.2595
    149  O         -1.5800    0.6520   13.3480 O.2   139  TYR139     -0.2718
    150  CB        -1.4220    3.2900   12.2870 C.3   139  TYR139      0.0548
    151  CG        -1.5440    4.7960   12.1560 C.ar  139  TYR139     -0.0200
    152  CD1       -1.0990    5.6510   13.1640 C.ar  139  TYR139     -0.0009
    153  CD2       -2.1120    5.3690   11.0190 C.ar  139  TYR139     -0.0009
    154  CE1       -1.2180    7.0370   13.0400 C.ar  139  TYR139      0.0417
    155  CE2       -2.2400    6.7560   10.8910 C.ar  139  TYR139      0.0417
    156  CZ        -1.7910    7.5810   11.9020 C.ar  139  TYR139      0.1957
    157  OH        -1.9230    8.9490   11.7920 O.3   139  TYR139     -0.2866
    158  N          0.6460    0.6540   13.6390 N.am  140  GLU140     -0.1979
    159  CA         0.7270   -0.8040   13.6620 C.3   140  GLU140      0.1602
    160  C          0.6470   -1.4920   15.0320 C.2   140  GLU140      0.2287
    161  O          1.6400   -2.0000   15.5590 O.2   140  GLU140     -0.2864
    162  CB         1.9530   -1.2810   12.8790 C.3   140  GLU140      0.0415
    163  CG         1.8590   -0.9820   11.3940 C.3   140  GLU140      0.1163
    164  CD         3.0800   -1.4060   10.6070 C.2   140  GLU140      0.3649
    165  OE1        4.1910   -1.4920   11.1760 O.co2 140  GLU140     -0.2457
    166  OE2        2.9250   -1.6590    9.3990 O.co2 140  GLU140     -0.2457
    167  N         -5.6080   -1.2940   14.9160 N.3   145  GLN145     -0.1245
    168  CA        -6.0790   -1.9640   13.7140 C.3   145  GLN145      0.1566
    169  C         -7.5430   -2.3570   13.8500 C.2   145  GLN145      0.2260
    170  O         -8.3330   -2.1720   12.9230 O.2   145  GLN145     -0.2867
    171  CB        -5.2030   -3.1840   13.4320 C.3   145  GLN145      0.0367
    172  CG        -3.7360   -2.8400   13.1180 C.3   145  GLN145      0.0905
    173  CD        -3.5450   -2.2850   11.7130 C.2   145  GLN145      0.2608
    174  OE1       -4.1490   -2.7720   10.7610 O.2   145  GLN145     -0.2717
    175  NE2       -2.7020   -1.2720   11.5760 N.am  145  GLN145     -0.0878
@<TRIPOS>BOND
     1   108   107    1
     2    18    19    1
     3   107   106   ar
     4   107   105   ar
     5    78    77    2
     6   106   104   ar
     7   105   103   ar
     8    36    37   ar
     9    36    34   ar
    10    37    35   ar
    11   104   102   ar
    12    77    76    1
    13    19    22    1
    14    19    20    1
    15   103   102   ar
    16    34    32   ar
    17    35    33   ar
    18   102   101    1
    19    22    23    1
    20    21    20    2
    21    20    27   am
    22    76    79    1
    23    76    75    1
    24    12    11    2
    25   101    98    1
    26    32    33   ar
    27    32    31    1
    28    79    80    1
    29    89    88    2
    30    27    28    1
    31    23    24    1
    32    80    81    1
    33    86    87    1
    34    24    25    1
    35    11    10    1
    36    31    28    1
    37    88    97   am
    38    88    87    1
    39    81    82    1
    40    98    97    1
    41    98    99    1
    42    28    29    1
    43    45    46    1
    44    47    48    2
    45    47    46    1
    46    87    90    1
    47    10     9    1
    48    10    13    1
    49    41    40    2
    50    40    39    1
    51    14    13    1
    52    14    15    1
    53    99   100    2
    54    82    83    2
    55    25    26    1
    56    46    49    1
    57    29    30    2
    58    29    38   am
    59    90    91    1
    60    39    38    1
    61    39    42    1
    62    15    16    1
    63    49    50    1
    64    38    44    1
    65    83    84    1
    66    83    85    1
    67    17    16    1
    68    91    92    1
    69    67    66    2
    70    50    51    1
    71    42    43    1
    72    44    43    1
    73    51    52    1
    74    66    65    1
    75    92    93    1
    76   109   110    1
    77    52    53    2
    78   114   113    1
    79    93    94    2
    80   113   110    1
    81    65    64    1
    82    65    68    1
    83   115   116    1
    84   115   111   am
    85   110   111    1
    86    95    94    1
    87    94    96    1
    88    53    55    1
    89    53    54    1
    90    70    72   ar
    91    70    69   ar
    92    68    69    1
    93   116   117    1
    94   111   112    2
    95    72    74   ar
    96    69    71   ar
    97   117   118    2
    98    74    73   ar
    99     2     3    1
   100     2     1    1
   101     2     5    1
   102    71    73   ar
   103     3     4    2
   104     8     6   ar
   105   145   143   ar
   106    62    61    1
   107   127   125   ar
   108   127   129   ar
   109   130   129    1
   110     5     6    1
   111   144   143   ar
   112     6     7   ar
   113   125   124   ar
   114   129   128   ar
   115   143   142    1
   116    61    60    1
   117    61    63    1
   118   124   123    1
   119   124   126   ar
   120    60    57    1
   121   128   126   ar
   122   119   120    1
   123   123   120    1
   124   166   164   ar
   125   142   141    1
   126   136   135    1
   127   120   121    1
   128    56    57    1
   129   135   132    1
   130    57    58    1
   131   131   121   am
   132   131   132    1
   133   141   138    1
   134   164   165   ar
   135   164   163    1
   136   174   173    2
   137    58    59    2
   138   121   122    2
   139   155   153   ar
   140   155   156   ar
   141   153   151   ar
   142   132   133    1
   143   163   162    1
   144   175   173   am
   145   173   172    1
   146   157   156    1
   147   138   137    1
   148   138   139    1
   149   156   154   ar
   150   133   134    2
   151   151   150    1
   152   151   152   ar
   153   150   147    1
   154   162   159    1
   155   139   140    2
   156   170   169    2
   157   154   152   ar
   158   172   171    1
   159   146   147    1
   160   149   148    2
   161   147   148    1
   162   171   168    1
   163   148   158   am
   164   158   159    1
   165   159   160    1
   166   168   169    1
   167   168   167    1
   168   160   161    2
