@<TRIPOS>MOLECULE
tmp/2tmnA00.pdb
 155 152 0 0 0
SMALL
GASTEIGER

@<TRIPOS>ATOM
      1  N         47.0850   15.3290    0.1290 N.3   112  ASN112     -0.1225
      2  CA        47.7880   16.1050   -0.8210 C.3   112  ASN112      0.1785
      3  C         47.3440   17.5830   -0.8030 C.2   112  ASN112      0.2597
      4  O         46.3850   17.8960   -0.0740 O.2   112  ASN112     -0.2718
      5  CB        47.5420   15.5040   -2.2020 C.3   112  ASN112      0.1169
      6  CG        48.6890   15.7590   -3.2160 C.2   112  ASN112      0.2627
      7  OD1       49.7350   16.3660   -3.1140 O.2   112  ASN112     -0.2716
      8  ND2       48.7080   15.0130   -4.2270 N.am  112  ASN112     -0.0877
      9  N         48.0190   18.4130   -1.5650 N.am  113  ALA113     -0.1966
     10  CA        47.7530   19.8250   -1.7640 C.3   113  ALA113      0.1728
     11  C         48.1280   19.9570   -3.2330 C.2   113  ALA113      0.2616
     12  O         48.9330   19.1690   -3.6820 O.2   113  ALA113     -0.2715
     13  CB        48.5840   20.7480   -0.8920 C.3   113  ALA113      0.0334
     14  N         47.5500   20.9110   -3.9880 N.am  114  PHE114     -0.1960
     15  CA        47.7800   21.1810   -5.4010 C.3   114  PHE114      0.1771
     16  C         47.3000   22.5680   -5.8350 C.2   114  PHE114      0.2619
     17  O         46.5560   23.2230   -5.1910 O.2   114  PHE114     -0.2715
     18  CB        47.0870   20.1120   -6.3200 C.3   114  PHE114      0.0574
     19  CG        45.5650   19.9170   -6.1800 C.ar  114  PHE114     -0.0200
     20  CD1       44.6520   20.4410   -7.1110 C.ar  114  PHE114     -0.0042
     21  CD2       45.0260   19.1490   -5.1470 C.ar  114  PHE114     -0.0042
     22  CE1       43.2740   20.2120   -6.9920 C.ar  114  PHE114     -0.0003
     23  CE2       43.6550   18.8990   -5.0040 C.ar  114  PHE114     -0.0003
     24  CZ        42.7730   19.4550   -5.9340 C.ar  114  PHE114     -0.0000
     25  N         47.7870   22.9680   -6.9920 N.am  115  TRP115     -0.1974
     26  CA        47.4170   24.1820   -7.7150 C.3   115  TRP115      0.1640
     27  C         46.5970   23.6490   -8.8770 C.2   115  TRP115      0.2290
     28  O         47.0680   22.7880   -9.6040 O.2   115  TRP115     -0.2864
     29  CB        48.6270   24.9590   -8.2250 C.3   115  TRP115      0.0576
     30  CG        48.2880   25.9950   -9.2160 C.ar  115  TRP115      0.0006
     31  CD1       48.5110   25.8760  -10.5630 C.ar  115  TRP115      0.0946
     32  CD2       47.7820   27.3250   -8.9730 C.ar  115  TRP115      0.0152
     33  NE1       48.0830   27.0390  -11.2200 N.ar  115  TRP115     -0.2442
     34  CE2       47.6510   27.9300  -10.2480 C.ar  115  TRP115      0.0810
     35  CE3       47.4210   28.0110   -7.7980 C.ar  115  TRP115      0.0012
     36  CZ2       47.1650   29.2770  -10.3440 C.ar  115  TRP115      0.0191
     37  CZ3       46.9860   29.3380   -7.8990 C.ar  115  TRP115      0.0001
     38  CH2       46.8090   29.8870   -9.1880 C.ar  115  TRP115      0.0015
     39  N         49.6870   12.3300    7.0090 N.3   130  PHE130     -0.1241
     40  CA        49.8420   13.7910    6.9750 C.3   130  PHE130      0.1605
     41  C         48.7910   14.3370    7.8730 C.2   130  PHE130      0.2264
     42  O         47.7690   13.6790    8.1000 O.2   130  PHE130     -0.2867
     43  CB        49.3820   14.2950    5.5720 C.3   130  PHE130      0.0534
     44  CG        50.4120   14.4150    4.4920 C.ar  130  PHE130     -0.0203
     45  CD1       50.4110   13.5490    3.4120 C.ar  130  PHE130     -0.0042
     46  CD2       51.4450   15.3470    4.5810 C.ar  130  PHE130     -0.0042
     47  CE1       51.3840   13.5640    2.4050 C.ar  130  PHE130     -0.0003
     48  CE2       52.4320   15.3760    3.5940 C.ar  130  PHE130     -0.0003
     49  CZ        52.4000   14.5080    2.4970 C.ar  130  PHE130     -0.0000
     50  N         47.6320   19.8550    5.2730 N.3   133  LEU133     -0.1245
     51  CA        48.7550   20.2990    4.4620 C.3   133  LEU133      0.1561
     52  C         49.2340   21.7670    4.4930 C.2   133  LEU133      0.2260
     53  O         50.4030   22.0510    4.2650 O.2   133  LEU133     -0.2867
     54  CB        48.6720   19.6780    3.0930 C.3   133  LEU133      0.0270
     55  CG        48.9140   18.1660    3.2400 C.3   133  LEU133      0.0019
     56  CD1       47.6700   17.3630    3.6160 C.3   133  LEU133      0.0001
     57  CD2       49.6620   17.8510    1.9920 C.3   133  LEU133      0.0001
     58  N         55.1880   23.7640    1.8510 N.3   139  VAL139     -0.1245
     59  CA        54.0230   23.1740    1.0970 C.3   139  VAL139      0.1561
     60  C         53.2390   24.3240    0.3500 C.2   139  VAL139      0.2260
     61  O         53.0720   24.2660   -0.9130 O.2   139  VAL139     -0.2867
     62  CB        53.1490   22.2830    2.0120 C.3   139  VAL139      0.0252
     63  CG1       51.8600   21.9140    1.2940 C.3   139  VAL139      0.0019
     64  CG2       54.0460   21.0460    2.3340 C.3   139  VAL139      0.0019
     65  N         55.3750   25.9660   -2.2340 N.3   142  HIS142     -0.1226
     66  CA        55.5680   25.0200   -3.3940 C.3   142  HIS142      0.1752
     67  C         54.3940   25.2360   -4.3580 C.2   142  HIS142      0.2595
     68  O         54.5300   25.3320   -5.5950 O.2   142  HIS142     -0.2718
     69  CB        55.7390   23.6000   -2.7990 C.3   142  HIS142      0.0759
     70  CG        55.7560   22.5110   -3.8300 C.ar  142  HIS142      0.0818
     71  ND1       56.9150   21.7490   -4.1090 N.ar  142  HIS142     -0.2268
     72  CD2       54.7630   22.1060   -4.6580 C.ar  142  HIS142      0.1154
     73  CE1       56.5930   20.9440   -5.1220 C.ar  142  HIS142      0.1986
     74  NE2       55.3030   21.1020   -5.4730 N.ar  142  HIS142     -0.2212
     75  N         53.1720   25.2610   -3.7560 N.am  143  GLU143     -0.1979
     76  CA        51.8620   25.4290   -4.4060 C.3   143  GLU143      0.1602
     77  C         51.7330   26.7040   -5.2800 C.2   143  GLU143      0.2287
     78  O         51.4580   26.7510   -6.5200 O.2   143  GLU143     -0.2864
     79  CB        50.6490   25.1120   -3.4600 C.3   143  GLU143      0.0415
     80  CG        50.5380   23.5930   -2.9950 C.3   143  GLU143      0.1163
     81  CD        50.9390   22.5250   -3.9860 C.2   143  GLU143      0.3649
     82  OE1       50.7910   22.5460   -5.2010 O.co2 143  GLU143     -0.2457
     83  OE2       51.3660   21.5020   -3.3880 O.co2 143  GLU143     -0.2457
     84  N         53.8590   26.9800   -8.1700 N.3   146  HIS146     -0.1241
     85  CA        53.3890   26.3700   -9.4460 C.3   146  HIS146      0.1621
     86  C         52.6020   27.4380  -10.2540 C.2   146  HIS146      0.2264
     87  O         52.6120   27.3770  -11.5030 O.2   146  HIS146     -0.2867
     88  CB        52.3960   25.2180   -9.0880 C.3   146  HIS146      0.0745
     89  CG        53.0550   23.8780   -8.8540 C.ar  146  HIS146      0.0817
     90  ND1       53.9960   23.3480   -9.7790 N.ar  146  HIS146     -0.2268
     91  CD2       52.9190   23.0210   -7.8280 C.ar  146  HIS146      0.1154
     92  CE1       54.3930   22.1720   -9.3330 C.ar  146  HIS146      0.1986
     93  NE2       53.7780   21.9860   -8.1660 N.ar  146  HIS146     -0.2212
     94  N         53.8410   19.6770  -17.5430 N.3   157  TYR157     -0.1241
     95  CA        54.0040   18.7770  -16.4200 C.3   157  TYR157      0.1605
     96  C         54.2520   17.3310  -16.7790 C.2   157  TYR157      0.2264
     97  O         53.5190   16.4200  -16.4460 O.2   157  TYR157     -0.2867
     98  CB        52.8050   18.9370  -15.4840 C.3   157  TYR157      0.0534
     99  CG        53.1170   18.7060  -14.0380 C.ar  157  TYR157     -0.0201
    100  CD1       52.4860   17.6500  -13.3920 C.ar  157  TYR157     -0.0009
    101  CD2       53.9900   19.5020  -13.2900 C.ar  157  TYR157     -0.0009
    102  CE1       52.6560   17.4070  -12.0240 C.ar  157  TYR157      0.0417
    103  CE2       54.1800   19.2960  -11.9150 C.ar  157  TYR157      0.0417
    104  CZ        53.5170   18.2220  -11.2940 C.ar  157  TYR157      0.1957
    105  OH        53.6500   17.9940   -9.9810 O.3   157  TYR157     -0.2866
    106  N         58.6150   20.8280  -10.8870 N.3   166  GLU166     -0.1245
    107  CA        58.6090   20.3310   -9.4750 C.3   166  GLU166      0.1567
    108  C         59.7930   20.8820   -8.6400 C.2   166  GLU166      0.2260
    109  O         59.6170   21.3510   -7.5420 O.2   166  GLU166     -0.2867
    110  CB        58.5610   18.7450   -9.4790 C.3   166  GLU166      0.0388
    111  CG        57.1280   18.2070   -9.6100 C.3   166  GLU166      0.1160
    112  CD        56.3240   18.8300   -8.5100 C.2   166  GLU166      0.3649
    113  OE1       55.3130   19.3570   -8.8040 O.co2 166  GLU166     -0.2457
    114  OE2       56.7780   18.7600   -7.2520 O.co2 166  GLU166     -0.2457
    115  N         61.6100   18.8150    2.4360 N.3   188  ILE188     -0.1231
    116  CA        60.2580   19.1680    2.0020 C.3   188  ILE188      0.1692
    117  C         59.0850   18.4340    2.7230 C.2   188  ILE188      0.2592
    118  O         59.0070   17.1860    2.6960 O.2   188  ILE188     -0.2718
    119  CB        59.9740   18.9720    0.4940 C.3   188  ILE188      0.0266
    120  CG1       61.0600   19.6670   -0.3190 C.3   188  ILE188      0.0019
    121  CG2       58.5130   19.3510    0.0900 C.3   188  ILE188      0.0020
    122  CD1       60.9590   21.1740   -0.0280 C.3   188  ILE188      0.0001
    123  N         58.1410   19.2600    3.3090 N.am  189  GLY189     -0.1957
    124  CA        56.9550   18.7290    3.9620 C.3   189  GLY189      0.1869
    125  C         57.1960   18.2070    5.4040 C.2   189  GLY189      0.2309
    126  O         56.2500   17.6560    6.0060 O.2   189  GLY189     -0.2863
    127  N         58.9910   14.4090    3.2240 N.3   202  LEU202     -0.1231
    128  CA        58.5260   13.7940    2.0190 C.3   202  LEU202      0.1693
    129  C         59.6270   13.5740    0.9550 C.2   202  LEU202      0.2591
    130  O         59.6340   12.5870    0.2000 O.2   202  LEU202     -0.2718
    131  CB        57.3500   14.6850    1.5340 C.3   202  LEU202      0.0284
    132  CG        56.7540   14.3410    0.2190 C.3   202  LEU202      0.0019
    133  CD1       56.0060   13.0940    0.6240 C.3   202  LEU202      0.0001
    134  CD2       55.6220   15.3550   -0.1270 C.3   202  LEU202      0.0001
    135  N         60.5410   14.5620    0.8950 N.am  203  ARG203     -0.1980
    136  CA        61.6720   14.6300    0.0090 C.3   203  ARG203      0.1597
    137  C         62.7600   15.4100    0.7260 C.2   203  ARG203      0.2287
    138  O         62.4650   16.2080    1.6630 O.2   203  ARG203     -0.2864
    139  CB        61.4310   15.3640   -1.3150 C.3   203  ARG203      0.0334
    140  CG        60.4620   14.7570   -2.2490 C.3   203  ARG203      0.0492
    141  CD        60.4030   15.5670   -3.5630 C.3   203  ARG203      0.2205
    142  NE        59.5800   16.7610   -3.5270 N.pl3 203  ARG203     -0.0865
    143  CZ        58.1820   16.8140   -3.5010 C.cat 203  ARG203      0.5346
    144  NH1       57.4070   15.7470   -3.4220 N.pl3 203  ARG203      0.1354
    145  NH2       57.5370   17.9810   -3.5440 N.pl3 203  ARG203      0.1354
    146  N         58.0090   14.0180   -9.8000 N.3   231  HIS231     -0.1241
    147  CA        58.3270   14.1360   -8.3900 C.3   231  HIS231      0.1621
    148  C         59.5730   13.2610   -7.9790 C.2   231  HIS231      0.2264
    149  O         60.0040   13.2880   -6.8210 O.2   231  HIS231     -0.2867
    150  CB        57.1930   13.7770   -7.3610 C.3   231  HIS231      0.0745
    151  CG        55.9920   14.6190   -7.5090 C.ar  231  HIS231      0.0817
    152  ND1       54.9690   14.2870   -8.4030 N.ar  231  HIS231     -0.2268
    153  CD2       55.6930   15.7850   -6.9040 C.ar  231  HIS231      0.1154
    154  CE1       54.0680   15.2700   -8.3040 C.ar  231  HIS231      0.1986
    155  NE2       54.4540   16.1390   -7.3660 N.ar  231  HIS231     -0.2212
@<TRIPOS>BOND
     1    94    95    1
     2    96    97    2
     3    96    95    1
     4    95    98    1
     5    98    99    1
     6    99   100   ar
     7    99   101   ar
     8   100   102   ar
     9   101   103   ar
    10   102   104   ar
    11   103   104   ar
    12    87    86    2
    13   104   105    1
    14    33    31   ar
    15    33    34   ar
    16   106   107    1
    17    31    30   ar
    18    36    34   ar
    19    36    38   ar
    20    86    85    1
    21    34    32   ar
    22   146   147    1
    23    90    92   ar
    24    90    89   ar
    25   111   110    1
    26   111   112    1
    27    28    27    2
    28   110   107    1
    29   107   108    1
    30    85    88    1
    31    85    84    1
    32    92    93   ar
    33    30    32   ar
    34    30    29    1
    35    38    37   ar
    36    88    89    1
    37    32    35   ar
    38    27    26    1
    39    89    91   ar
    40   113   112   ar
    41   108   109    2
    42   112   114   ar
    43   152   154   ar
    44   152   151   ar
    45   147   148    1
    46   147   150    1
    47   154   155   ar
    48    29    26    1
    49    93    91   ar
    50   148   149    2
    51    37    35   ar
    52    26    25    1
    53   151   150    1
    54   151   153   ar
    55   155   153   ar
    56    20    22   ar
    57    20    19   ar
    58    25    16   am
    59    22    24   ar
    60    78    77    2
    61    18    19    1
    62    18    15    1
    63    19    21   ar
    64    24    23   ar
    65    16    15    1
    66    16    17    2
    67    68    67    2
    68    74    73   ar
    69    74    72   ar
    70    15    14    1
    71    77    76    1
    72    82    81   ar
    73    21    23   ar
    74    73    71   ar
    75    72    70   ar
    76    76    75    1
    77    76    79    1
    78    67    75   am
    79    67    66    1
    80     8     6   am
    81    71    70   ar
    82    14    11   am
    83    81    83   ar
    84    81    80    1
    85    70    69    1
    86    12    11    2
    87   141   142    1
    88   141   140    1
    89   145   143    1
    90   142   143    2
    91   143   144    1
    92    79    80    1
    93    66    69    1
    94    66    65    1
    95    11    10    1
    96     6     7    2
    97     6     5    1
    98   140   139    1
    99     5     2    1
   100    10     9    1
   101    10    13    1
   102     9     3   am
   103   139   136    1
   104    61    60    2
   105     2     3    1
   106     2     1    1
   107     3     4    2
   108   120   122    1
   109   120   119    1
   110   134   132    1
   111   136   137    1
   112   136   135    1
   113   121   119    1
   114   130   129    2
   115   132   133    1
   116   132   131    1
   117    60    59    1
   118   119   116    1
   119   137   138    2
   120   135   129   am
   121   129   128    1
   122    59    58    1
   123    59    62    1
   124    63    62    1
   125   131   128    1
   126    57    55    1
   127   116   115    1
   128   116   117    1
   129    62    64    1
   130   128   127    1
   131    47    49   ar
   132    47    45   ar
   133    49    48   ar
   134   118   117    2
   135   117   123   am
   136    54    55    1
   137    54    51    1
   138    55    56    1
   139   123   124    1
   140    45    44   ar
   141    48    46   ar
   142   124   125    1
   143    53    52    2
   144    51    52    1
   145    51    50    1
   146    44    46   ar
   147    44    43    1
   148   125   126    2
   149    43    40    1
   150    40    39    1
   151    40    41    1
   152    41    42    2
