@<TRIPOS>MOLECULE
tmp/2tohA00.pdb
 158 154 0 0 0
SMALL
GASTEIGER

@<TRIPOS>ATOM
      1  N         82.4110   52.7500   37.0050 N.3   129  VAL129     -0.1245
      2  CA        82.2170   53.4170   35.7270 C.3   129  VAL129      0.1561
      3  C         83.1730   54.5900   35.5860 C.2   129  VAL129      0.2260
      4  O         83.4410   55.3210   36.5420 O.2   129  VAL129     -0.2867
      5  CB        80.7820   53.9290   35.5630 C.3   129  VAL129      0.0252
      6  CG1       80.5840   55.1980   36.3920 C.3   129  VAL129      0.0019
      7  CG2       80.4880   54.1330   34.0790 C.3   129  VAL129      0.0019
      8  N         80.1880   59.5270   33.3480 N.3   132  LEU132     -0.1231
      9  CA        79.0850   59.7650   32.4210 C.3   132  LEU132      0.1693
     10  C         78.9280   58.8420   31.2150 C.2   132  LEU132      0.2592
     11  O         79.6880   58.9060   30.2430 O.2   132  LEU132     -0.2718
     12  CB        79.0480   61.2150   31.9660 C.3   132  LEU132      0.0284
     13  CG        78.3850   62.1510   32.9750 C.3   132  LEU132      0.0019
     14  CD1       77.7830   63.3290   32.1730 C.3   132  LEU132      0.0001
     15  CD2       77.2500   61.4670   33.7270 C.3   132  LEU132      0.0001
     16  N         77.9080   57.9850   31.3260 N.am  133  LEU133     -0.1966
     17  CA        77.4720   56.9820   30.3400 C.3   133  LEU133      0.1728
     18  C         76.2990   57.5330   29.4750 C.2   133  LEU133      0.2617
     19  O         75.6910   58.5650   29.8250 O.2   133  LEU133     -0.2715
     20  CB        76.9900   55.7490   31.1180 C.3   133  LEU133      0.0311
     21  CG        77.8580   54.5150   31.0530 C.3   133  LEU133      0.0022
     22  CD1       77.5610   53.5100   32.1410 C.3   133  LEU133      0.0001
     23  CD2       77.5790   53.9370   29.6900 C.3   133  LEU133      0.0001
     24  N         75.9660   56.8580   28.3630 N.am  134  SER134     -0.1936
     25  CA        74.8020   57.3030   27.5720 C.3   134  SER134      0.2055
     26  C         73.5400   57.0820   28.4200 C.2   134  SER134      0.2642
     27  O         73.5260   56.2100   29.2970 O.2   134  SER134     -0.2714
     28  CB        74.6670   56.5370   26.2360 C.3   134  SER134      0.2130
     29  OG        74.4310   55.1290   26.3470 O.3   134  SER134     -0.2179
     30  N         72.5080   57.8980   28.1950 N.am  135  ALA135     -0.1977
     31  CA        71.2500   57.7780   28.9070 C.3   135  ALA135      0.1597
     32  C         70.6990   56.3230   28.8510 C.2   135  ALA135      0.2287
     33  O         70.3000   55.7300   29.8750 O.2   135  ALA135     -0.2864
     34  CB        70.1910   58.7810   28.3000 C.3   135  ALA135      0.0319
     35  N         70.3490   53.9010   32.1750 N.3   138  LEU138     -0.1245
     36  CA        69.0440   53.4540   32.5900 C.3   138  LEU138      0.1561
     37  C         68.9650   51.9230   32.4140 C.2   138  LEU138      0.2260
     38  O         68.3920   51.2510   33.2640 O.2   138  LEU138     -0.2867
     39  CB        67.9430   54.1680   31.7970 C.3   138  LEU138      0.0270
     40  CG        67.9090   55.6820   32.0160 C.3   138  LEU138      0.0019
     41  CD1       66.7400   56.3230   31.2650 C.3   138  LEU138      0.0001
     42  CD2       67.7560   55.9680   33.4850 C.3   138  LEU138      0.0001
     43  N         74.0420   49.7710   39.7170 N.3   146  PHE146     -0.1227
     44  CA        74.3430   51.2020   39.6860 C.3   146  PHE146      0.1736
     45  C         75.7820   51.4410   39.1390 C.2   146  PHE146      0.2595
     46  O         76.7870   50.9330   39.6930 O.2   146  PHE146     -0.2718
     47  CB        74.1940   51.8040   41.0940 C.3   146  PHE146      0.0547
     48  CG        74.3390   53.3260   41.1290 C.ar  146  PHE146     -0.0202
     49  CD1       73.4260   54.1460   40.4600 C.ar  146  PHE146     -0.0042
     50  CD2       75.4100   53.9240   41.7620 C.ar  146  PHE146     -0.0042
     51  CE1       73.6000   55.5510   40.4200 C.ar  146  PHE146     -0.0003
     52  CE2       75.5940   55.3030   41.7360 C.ar  146  PHE146     -0.0003
     53  CZ        74.6880   56.1220   41.0610 C.ar  146  PHE146     -0.0000
     54  N         75.8700   52.1590   38.0170 N.am  147  GLN147     -0.1979
     55  CA        77.1630   52.4850   37.3620 C.3   147  GLN147      0.1601
     56  C         77.7900   53.5310   38.3120 C.2   147  GLN147      0.2287
     57  O         77.2970   54.6380   38.4140 O.2   147  GLN147     -0.2864
     58  CB        76.8770   53.1120   36.0020 C.3   147  GLN147      0.0394
     59  CG        76.1930   52.1790   35.0170 C.3   147  GLN147      0.0908
     60  CD        77.1030   51.0550   34.5560 C.2   147  GLN147      0.2608
     61  OE1       78.2810   51.0270   34.8680 O.2   147  GLN147     -0.2717
     62  NE2       76.5600   50.1450   33.7920 N.am  147  GLN147     -0.0878
     63  N         81.0840   55.8460   39.9490 N.3   149  THR149     -0.1218
     64  CA        82.4550   56.4040   39.8100 C.3   149  THR149      0.1862
     65  C         83.2620   56.1200   41.0750 C.2   149  THR149      0.2287
     66  O         82.7160   56.0980   42.1860 O.2   149  THR149     -0.2866
     67  CB        82.4610   57.8990   39.6470 C.3   149  THR149      0.1770
     68  OG1       81.8590   58.4720   40.8060 O.3   149  THR149     -0.2211
     69  CG2       81.6590   58.3300   38.4510 C.3   149  THR149      0.0375
     70  N         79.8050   63.7550   38.5120 N.3   164  PRO164     -0.2116
     71  CA        79.4990   62.9010   39.6470 C.3   164  PRO164      0.1372
     72  C         80.8440   62.2760   40.1070 C.2   164  PRO164      0.2244
     73  O         81.6110   61.8280   39.2850 O.2   164  PRO164     -0.2868
     74  CB        78.5640   61.8750   39.0080 C.3   164  PRO164      0.0268
     75  CG        79.1340   61.7640   37.6190 C.3   164  PRO164      0.0207
     76  CD        79.1590   63.2210   37.3050 C.3   164  PRO164      0.0892
     77  N         79.6670   62.0260   45.5690 N.3   168  HIS168     -0.1226
     78  CA        78.2640   62.1500   45.1170 C.3   168  HIS168      0.1752
     79  C         77.5830   60.7770   45.0570 C.2   168  HIS168      0.2595
     80  O         76.4580   60.6620   45.5110 O.2   168  HIS168     -0.2718
     81  CB        78.2060   62.7680   43.7550 C.3   168  HIS168      0.0759
     82  CG        76.8870   62.5740   43.0550 C.ar  168  HIS168      0.0818
     83  ND1       75.7560   63.2910   43.3730 N.ar  168  HIS168     -0.2268
     84  CD2       76.5410   61.7810   42.0130 C.ar  168  HIS168      0.1154
     85  CE1       74.7690   62.9560   42.5620 C.ar  168  HIS168      0.1986
     86  NE2       75.2190   62.0430   41.7240 N.ar  168  HIS168     -0.2212
     87  N         78.2850   59.7440   44.5540 N.am  169  GLU169     -0.1979
     88  CA        77.7190   58.3890   44.4500 C.3   169  GLU169      0.1602
     89  C         77.5200   57.8070   45.8390 C.2   169  GLU169      0.2287
     90  O         76.4260   57.3040   46.1820 O.2   169  GLU169     -0.2864
     91  CB        78.6370   57.3560   43.7580 C.3   169  GLU169      0.0415
     92  CG        79.2600   57.6570   42.4460 C.3   169  GLU169      0.1163
     93  CD        78.2820   58.0610   41.4180 C.2   169  GLU169      0.3649
     94  OE1       78.6810   58.1360   40.2570 O.co2 169  GLU169     -0.2457
     95  OE2       77.1230   58.3480   41.7740 O.co2 169  GLU169     -0.2457
     96  N         73.6820   58.7790   46.3910 N.3   173  HIS173     -0.1241
     97  CA        72.8280   57.7560   45.8300 C.3   173  HIS173      0.1621
     98  C         72.6590   56.5360   46.6160 C.2   173  HIS173      0.2264
     99  O         71.5550   56.0830   46.8120 O.2   173  HIS173     -0.2867
    100  CB        73.3470   57.2850   44.4760 C.3   173  HIS173      0.0745
    101  CG        73.1470   58.2620   43.3610 C.ar  173  HIS173      0.0817
    102  ND1       71.9240   58.4490   42.7590 N.ar  173  HIS173     -0.2268
    103  CD2       74.0400   58.9770   42.6340 C.ar  173  HIS173      0.1154
    104  CE1       72.0760   59.2240   41.6950 C.ar  173  HIS173      0.1986
    105  NE2       73.3530   59.5580   41.5990 N.ar  173  HIS173     -0.2212
    106  N         65.1250   59.9510   31.1980 N.3   205  SER205     -0.1217
    107  CA        66.2650   60.6190   31.8130 C.3   205  SER205      0.1889
    108  C         65.8210   61.8170   32.6300 C.2   205  SER205      0.2288
    109  O         66.3710   62.0800   33.6910 O.2   205  SER205     -0.2866
    110  CB        67.2100   61.1570   30.7700 C.3   205  SER205      0.2089
    111  OG        67.8470   60.0980   30.1010 O.3   205  SER205     -0.2183
    112  N         64.0100   60.8500   35.7410 N.3   208  TYR208     -0.1227
    113  CA        65.0890   60.4560   36.6550 C.3   208  TYR208      0.1736
    114  C         65.7500   61.7050   37.2920 C.2   208  TYR208      0.2595
    115  O         66.0280   61.7460   38.5280 O.2   208  TYR208     -0.2718
    116  CB        66.1460   59.6580   35.8720 C.3   208  TYR208      0.0548
    117  CG        67.4030   59.1720   36.6290 C.ar  208  TYR208     -0.0200
    118  CD1       67.4580   57.8990   37.2400 C.ar  208  TYR208     -0.0009
    119  CD2       68.5500   59.9900   36.7240 C.ar  208  TYR208     -0.0009
    120  CE1       68.6260   57.4500   37.9100 C.ar  208  TYR208      0.0417
    121  CE2       69.7060   59.5680   37.3840 C.ar  208  TYR208      0.0417
    122  CZ        69.7380   58.2920   37.9680 C.ar  208  TYR208      0.1957
    123  OH        70.8980   57.8710   38.5670 O.3   208  TYR208     -0.2866
    124  N         65.9730   62.7260   36.4480 N.am  209  TRP209     -0.1976
    125  CA        66.6220   63.9190   36.9060 C.3   209  TRP209      0.1640
    126  C         65.8760   64.6030   38.0260 C.2   209  TRP209      0.2290
    127  O         66.4810   65.0040   39.0590 O.2   209  TRP209     -0.2864
    128  CB        66.8960   64.8470   35.7250 C.3   209  TRP209      0.0576
    129  CG        67.4930   66.2170   36.1010 C.ar  209  TRP209      0.0006
    130  CD1       66.7980   67.3210   36.4180 C.ar  209  TRP209      0.0946
    131  CD2       68.8820   66.5950   36.0930 C.ar  209  TRP209      0.0152
    132  NE1       67.6470   68.3710   36.5970 N.ar  209  TRP209     -0.2442
    133  CE2       68.9370   67.9530   36.3910 C.ar  209  TRP209      0.0810
    134  CE3       70.0690   65.9090   35.8490 C.ar  209  TRP209      0.0012
    135  CZ2       70.1410   68.6740   36.4530 C.ar  209  TRP209      0.0191
    136  CZ3       71.2830   66.6140   35.9140 C.ar  209  TRP209      0.0001
    137  CH2       71.3050   67.9920   36.2100 C.ar  209  TRP209      0.0015
    138  N         67.8200   62.1890   40.9230 N.3   213  GLU213     -0.1245
    139  CA        68.8740   63.1850   41.0710 C.3   213  GLU213      0.1567
    140  C         68.4550   64.4020   41.8640 C.2   213  GLU213      0.2260
    141  O         69.2110   64.8240   42.7320 O.2   213  GLU213     -0.2867
    142  CB        69.4100   63.6220   39.7090 C.3   213  GLU213      0.0388
    143  CG        70.9720   63.8130   39.6100 C.3   213  GLU213      0.1160
    144  CD        71.7870   62.5450   39.8880 C.2   213  GLU213      0.3649
    145  OE1       71.5600   61.4690   39.2850 O.co2 213  GLU213     -0.2457
    146  OE2       72.7130   62.6150   40.7130 O.co2 213  GLU213     -0.2457
    147  N         65.7040   71.7270   31.9820 N.3   260  TYR260     -0.1241
    148  CA        66.5570   71.9460   33.1120 C.3   260  TYR260      0.1605
    149  C         67.9420   72.1680   32.5780 C.2   260  TYR260      0.2264
    150  O         68.1910   71.8390   31.4420 O.2   260  TYR260     -0.2867
    151  CB        66.5080   70.7060   34.0140 C.3   260  TYR260      0.0534
    152  CG        66.9870   69.4610   33.3310 C.ar  260  TYR260     -0.0201
    153  CD1       68.3170   69.0820   33.4270 C.ar  260  TYR260     -0.0009
    154  CD2       66.1100   68.6270   32.6470 C.ar  260  TYR260     -0.0009
    155  CE1       68.7580   67.8980   32.8780 C.ar  260  TYR260      0.0417
    156  CE2       66.5480   67.4310   32.0840 C.ar  260  TYR260      0.0417
    157  CZ        67.8750   67.0690   32.2070 C.ar  260  TYR260      0.1957
    158  OH        68.3890   65.8980   31.6700 O.3   260  TYR260     -0.2866
@<TRIPOS>BOND
     1    28    29    1
     2    28    25    1
     3    25    24    1
     4    25    26    1
     5    30    26   am
     6    30    31    1
     7    34    31    1
     8    24    18   am
     9    26    27    2
    10    32    31    1
    11    32    33    2
    12    18    19    2
    13    18    17    1
    14    23    21    1
    15   111   110    1
    16    11    10    2
    17    17    20    1
    18    17    16    1
    19   110   107    1
    20    21    20    1
    21    21    22    1
    22   106   107    1
    23    10    16   am
    24    10     9    1
    25    41    40    1
    26   150   149    2
    27   158   157    1
    28    39    40    1
    29    39    36    1
    30   107   108    1
    31    12     9    1
    32    12    13    1
    33   147   148    1
    34    40    42    1
    35   156   157   ar
    36   156   154   ar
    37    14    13    1
    38    35    36    1
    39   157   155   ar
    40    37    36    1
    41    37    38    2
    42     9     8    1
    43   149   148    1
    44   108   109    2
    45   154   152   ar
    46   155   153   ar
    47    13    15    1
    48   148   151    1
    49   152   153   ar
    50   152   151    1
    51    62    60   am
    52     7     5    1
    53    60    61    2
    54    60    59    1
    55    59    58    1
    56     5     2    1
    57     5     6    1
    58     3     2    1
    59     3     4    2
    60   128   129    1
    61   128   125    1
    62     2     1    1
    63   112   113    1
    64   134   136   ar
    65   134   131   ar
    66   116   117    1
    67   116   113    1
    68   136   137   ar
    69    58    55    1
    70   131   129   ar
    71   131   133   ar
    72   129   130   ar
    73   137   135   ar
    74   133   135   ar
    75   133   132   ar
    76   130   132   ar
    77   124   125    1
    78   124   114   am
    79   117   119   ar
    80   117   118   ar
    81   113   114    1
    82   119   121   ar
    83   125   126    1
    84   118   120   ar
    85   114   115    2
    86    76    75    1
    87    76    70    1
    88    55    54    1
    89    55    56    1
    90   121   122   ar
    91    75    74    1
    92   120   122   ar
    93   122   123    1
    94    54    45   am
    95   126   127    2
    96    56    57    2
    97    69    67    1
    98    70    71    1
    99    74    71    1
   100    45    44    1
   101    45    46    2
   102   145   144   ar
   103    73    72    2
   104   143   142    1
   105   143   144    1
   106    67    64    1
   107    67    68    1
   108    71    72    1
   109    44    43    1
   110    44    47    1
   111   142   139    1
   112    64    63    1
   113    64    65    1
   114   144   146   ar
   115    94    93   ar
   116    51    49   ar
   117    51    53   ar
   118    49    48   ar
   119   138   139    1
   120    53    52   ar
   121   139   140    1
   122    65    66    2
   123    47    48    1
   124    48    50   ar
   125    93    95   ar
   126    93    92    1
   127   105   104   ar
   128   105   103   ar
   129   104   102   ar
   130    86    84   ar
   131    86    85   ar
   132    52    50   ar
   133   140   141    2
   134    84    82   ar
   135    92    91    1
   136    85    83   ar
   137   103   101   ar
   138   102   101   ar
   139    82    83   ar
   140    82    81    1
   141   101   100    1
   142    81    78    1
   143    91    88    1
   144    88    87    1
   145    88    89    1
   146   100    97    1
   147    87    79   am
   148    79    78    1
   149    79    80    2
   150    78    77    1
   151    97    96    1
   152    97    98    1
   153    89    90    2
   154    98    99    2
