@<TRIPOS>MOLECULE
tmp/2tplB00.pdb
 120 114 0 0 0
SMALL
GASTEIGER

@<TRIPOS>ATOM
      1  N        -18.7330   19.9730   -7.1300 N.3    35  PHE35      -0.1241
      2  CA       -19.0620   18.6410   -6.6670 C.3    35  PHE35       0.1605
      3  C        -18.6540   17.5890   -7.6870 C.2    35  PHE35       0.2264
      4  O        -18.4390   16.4290   -7.3100 O.2    35  PHE35      -0.2867
      5  CB       -20.5390   18.4630   -6.3280 C.3    35  PHE35       0.0534
      6  CG       -20.7450   18.3210   -4.8460 C.ar   35  PHE35      -0.0203
      7  CD1      -20.4050   17.1520   -4.2090 C.ar   35  PHE35      -0.0042
      8  CD2      -21.2730   19.3450   -4.0890 C.ar   35  PHE35      -0.0042
      9  CE1      -20.5590   16.9900   -2.8410 C.ar   35  PHE35      -0.0003
     10  CE2      -21.4400   19.2080   -2.7240 C.ar   35  PHE35      -0.0003
     11  CZ       -21.0850   18.0300   -2.0940 C.ar   35  PHE35      -0.0000
     12  N        -15.5180   19.8790    2.5240 N.3    48  THR48      -0.1203
     13  CA       -16.1140   19.4970    3.7950 C.3    48  THR48       0.1994
     14  C        -15.0120   19.2400    4.8170 C.2    48  THR48       0.2618
     15  O        -13.8940   18.8200    4.5320 O.2    48  THR48      -0.2717
     16  CB       -16.9430   18.2260    3.6510 C.3    48  THR48       0.1784
     17  OG1      -17.5260   17.8650    4.9020 O.3    48  THR48      -0.2211
     18  CG2      -16.1140   17.0500    3.1410 C.3    48  THR48       0.0376
     19  N        -15.4850   19.3620    6.0580 N.am   49  ASP49      -0.1959
     20  CA       -14.6280   19.0620    7.2020 C.3    49  ASP49       0.1840
     21  C        -14.9960   17.6530    7.6590 C.2    49  ASP49       0.2622
     22  O        -14.5460   17.2760    8.7420 O.2    49  ASP49      -0.2715
     23  CB       -14.7930   20.0640    8.3400 C.3    49  ASP49       0.1450
     24  CG       -16.0180   19.8150    9.1910 C.2    49  ASP49       0.3671
     25  OD1      -17.0270   19.3360    8.6350 O.co2  49  ASP49      -0.2456
     26  OD2      -16.0100   20.0570   10.4090 O.co2  49  ASP49      -0.2456
     27  N        -15.7860   16.9210    6.8820 N.am   50  SER50      -0.1950
     28  CA       -16.2310   15.6240    7.3280 C.3    50  SER50       0.1924
     29  C        -15.4610   14.4330    6.7960 C.2    50  SER50       0.2314
     30  O        -15.5320   14.1220    5.6030 O.2    50  SER50      -0.2863
     31  CB       -17.7070   15.3960    6.9510 C.3    50  SER50       0.2116
     32  OG       -17.9950   14.0600    7.3480 O.3    50  SER50      -0.2180
     33  N        -25.4250   10.1580   10.7010 N.3    99  ARG99      -0.1245
     34  CA       -26.8040    9.9480   10.2530 C.3    99  ARG99       0.1563
     35  C        -27.3450    8.5700   10.5870 C.2    99  ARG99       0.2260
     36  O        -28.5700    8.4540   10.7780 O.2    99  ARG99      -0.2867
     37  CB       -27.0350   10.4200    8.8310 C.3    99  ARG99       0.0307
     38  CG       -26.4740    9.5400    7.7370 C.3    99  ARG99       0.0489
     39  CD       -26.2470   10.3500    6.4680 C.3    99  ARG99       0.2205
     40  NE       -25.2220   11.3570    6.6840 N.pl3  99  ARG99      -0.0865
     41  CZ       -24.7910   12.2290    5.7800 C.cat  99  ARG99       0.5346
     42  NH1      -25.2950   12.2460    4.5510 N.pl3  99  ARG99       0.1354
     43  NH2      -23.8320   13.0910    6.0960 N.pl3  99  ARG99       0.1354
     44  N        -29.8490   20.7800   11.1070 N.3   122  PHE122     -0.1227
     45  CA       -28.9330   20.2260   10.1200 C.3   122  PHE122      0.1736
     46  C        -29.7080   19.2470    9.2430 C.2   122  PHE122      0.2596
     47  O        -30.5450   18.4920    9.7500 O.2   122  PHE122     -0.2718
     48  CB       -27.7740   19.5340   10.8430 C.3   122  PHE122      0.0547
     49  CG       -26.8060   18.9780    9.8320 C.ar  122  PHE122     -0.0202
     50  CD1      -25.8910   19.7980    9.1980 C.ar  122  PHE122     -0.0042
     51  CD2      -26.8600   17.6390    9.4980 C.ar  122  PHE122     -0.0042
     52  CE1      -25.0250   19.2760    8.2610 C.ar  122  PHE122     -0.0003
     53  CE2      -25.9910   17.1110    8.5620 C.ar  122  PHE122     -0.0003
     54  CZ       -25.0640   17.9290    7.9400 C.ar  122  PHE122     -0.0000
     55  N        -29.4460   19.2150    7.9470 N.am  123  THR123     -0.1939
     56  CA       -30.2700   18.4650    7.0100 C.3   123  THR123      0.2028
     57  C        -30.6540   17.0540    7.4140 C.2   123  THR123      0.2642
     58  O        -31.8360   16.6730    7.4600 O.2   123  THR123     -0.2714
     59  CB       -29.6280   18.4770    5.6100 C.3   123  THR123      0.1808
     60  OG1      -29.7060   19.8290    5.1190 O.3   123  THR123     -0.2208
     61  CG2      -30.4150   17.5810    4.6650 C.3   123  THR123      0.0379
     62  N        -29.6600   16.1940    7.6320 N.am  124  THR124     -0.1950
     63  CA       -29.9360   14.8040    7.9630 C.3   124  THR124      0.1897
     64  C        -30.7120   14.6870    9.2690 C.2   124  THR124      0.2313
     65  O        -31.5650   13.8150    9.3890 O.2   124  THR124     -0.2863
     66  CB       -28.6580   13.9540    8.0380 C.3   124  THR124      0.1794
     67  OG1      -27.8210   14.4550    9.0910 O.3   124  THR124     -0.2208
     68  CG2      -27.8950   13.9880    6.7220 C.3   124  THR124      0.0378
     69  N        -19.6840   18.5630   16.4770 N.3   216  ARG216     -0.1245
     70  CA       -18.4930   19.3900   16.6650 C.3   216  ARG216      0.1563
     71  C        -18.4290   19.8780   18.1000 C.2   216  ARG216      0.2260
     72  O        -18.1860   21.0470   18.3770 O.2   216  ARG216     -0.2867
     73  CB       -18.4530   20.5230   15.6580 C.3   216  ARG216      0.0307
     74  CG       -18.3860   20.0980   14.2090 C.3   216  ARG216      0.0489
     75  CD       -18.2340   21.2780   13.2310 C.3   216  ARG216      0.2205
     76  NE       -18.3110   20.6640   11.8920 N.pl3 216  ARG216     -0.0865
     77  CZ       -19.4810   20.4100   11.3200 C.cat 216  ARG216      0.5346
     78  NH1      -20.6080   20.7600   11.9310 N.pl3 216  ARG216      0.1354
     79  NH2      -19.5090   19.8180   10.1370 N.pl3 216  ARG216      0.1354
     80  N        -17.5100   24.6070   -1.3830 N.3   377  MET377     -0.1245
     81  CA       -18.8430   24.0820   -1.6590 C.3   377  MET377      0.1570
     82  C        -19.8920   25.1860   -1.7390 C.2   377  MET377      0.2261
     83  O        -19.9870   26.0930   -0.9160 O.2   377  MET377     -0.2867
     84  CB       -19.2360   23.0290   -0.6310 C.3   377  MET377      0.0387
     85  CG       -20.6010   22.4180   -0.8760 C.3   377  MET377      0.0595
     86  SD       -21.2610   21.6940    0.6410 S.3   377  MET377     -0.1393
     87  CE       -20.5240   20.0570    0.5800 C.3   377  MET377      0.0692
     88  N        -23.2270   26.7430   -1.1260 N.3   379  ARG379     -0.1245
     89  CA       -24.2890   26.6490   -0.1250 C.3   379  ARG379      0.1563
     90  C        -25.2850   27.8060   -0.3080 C.2   379  ARG379      0.2260
     91  O        -25.3650   28.7620    0.4710 O.2   379  ARG379     -0.2867
     92  CB       -23.7800   26.6790    1.3040 C.3   379  ARG379      0.0307
     93  CG       -23.0040   25.4910    1.8120 C.3   379  ARG379      0.0489
     94  CD       -23.8900   24.2800    2.0310 C.3   379  ARG379      0.2205
     95  NE       -24.2910   23.6530    0.7700 N.pl3 379  ARG379     -0.0865
     96  CZ       -24.6710   22.3820    0.6690 C.cat 379  ARG379      0.5346
     97  NH1      -24.6970   21.6210    1.7570 N.pl3 379  ARG379      0.1354
     98  NH2      -25.0210   21.8640   -0.5000 N.pl3 379  ARG379      0.1354
     99  N        -18.8840   27.8460    1.1160 N.3   402  ARG402     -0.1245
    100  CA       -18.2930   27.3890    2.3610 C.3   402  ARG402      0.1563
    101  C        -16.8760   26.8510    2.2120 C.2   402  ARG402      0.2260
    102  O        -16.6300   25.9520    1.4010 O.2   402  ARG402     -0.2867
    103  CB       -19.1390   26.2620    2.9590 C.3   402  ARG402      0.0307
    104  CG       -18.7180   25.9330    4.3800 C.3   402  ARG402      0.0489
    105  CD       -19.5180   24.7450    4.8800 C.3   402  ARG402      0.2205
    106  NE       -19.2110   23.5460    4.0990 N.pl3 402  ARG402     -0.0865
    107  CZ       -19.8470   22.3970    4.2930 C.cat 402  ARG402      0.5346
    108  NH1      -20.8000   22.3490    5.2150 N.pl3 402  ARG402      0.1354
    109  NH2      -19.5170   21.3410    3.5660 N.pl3 402  ARG402      0.1354
    110  N        -27.5130   19.8750   -6.5870 N.3   446  PHE446     -0.1241
    111  CA       -26.1850   20.4180   -6.3180 C.3   446  PHE446      0.1605
    112  C        -25.0920   19.4280   -6.6800 C.2   446  PHE446      0.2264
    113  O        -24.0990   19.7550   -7.3340 O.2   446  PHE446     -0.2867
    114  CB       -26.0070   20.9060   -4.8860 C.3   446  PHE446      0.0534
    115  CG       -26.2190   19.8740   -3.8300 C.ar  446  PHE446     -0.0203
    116  CD1      -27.4890   19.5870   -3.3600 C.ar  446  PHE446     -0.0042
    117  CD2      -25.1510   19.1690   -3.3050 C.ar  446  PHE446     -0.0042
    118  CE1      -27.6910   18.6240   -2.3880 C.ar  446  PHE446     -0.0003
    119  CE2      -25.3390   18.2030   -2.3370 C.ar  446  PHE446     -0.0003
    120  CZ       -26.6080   17.9190   -1.8770 C.ar  446  PHE446     -0.0000
@<TRIPOS>BOND
     1     3     4    2
     2     3     2    1
     3   113   112    2
     4     1     2    1
     5   112   111    1
     6     2     5    1
     7   110   111    1
     8     5     6    1
     9   111   114    1
    10   114   115    1
    11     6     7   ar
    12     6     8   ar
    13     7     9   ar
    14     8    10   ar
    15   115   116   ar
    16   115   117   ar
    17   116   118   ar
    18   117   119   ar
    19     9    11   ar
    20    10    11   ar
    21   118   120   ar
    22   119   120   ar
    23    82    81    1
    24    82    83    2
    25    81    80    1
    26    81    84    1
    27    88    89    1
    28    85    84    1
    29    85    86    1
    30    98    96    1
    31    90    89    1
    32    90    91    2
    33    89    92    1
    34    87    86    1
    35    96    95    2
    36    96    97    1
    37    95    94    1
    38    99   100    1
    39    92    93    1
    40   102   101    2
    41    93    94    1
    42   101   100    1
    43   100   103    1
    44    12    13    1
    45   103   104    1
    46    18    16    1
    47   109   107    1
    48    16    13    1
    49    16    17    1
    50    13    14    1
    51   106   107    2
    52   106   105    1
    53   107   108    1
    54   104   105    1
    55    15    14    2
    56    42    41    1
    57    61    59    1
    58    14    19   am
    59    60    59    1
    60    30    29    2
    61    59    56    1
    62    41    43    1
    63    41    40    2
    64    19    20    1
    65    39    40    1
    66    39    38    1
    67    68    66    1
    68    29    28    1
    69    27    28    1
    70    27    21   am
    71    31    28    1
    72    31    32    1
    73    56    57    1
    74    56    55    1
    75    20    21    1
    76    20    23    1
    77    57    58    2
    78    57    62   am
    79    62    63    1
    80    21    22    2
    81    38    37    1
    82    54    52   ar
    83    54    53   ar
    84    55    46   am
    85    63    66    1
    86    63    64    1
    87    66    67    1
    88    52    50   ar
    89    23    24    1
    90    53    51   ar
    91    25    24   ar
    92    37    34    1
    93    24    26   ar
    94    50    49   ar
    95    46    47    2
    96    46    45    1
    97    64    65    2
    98    51    49   ar
    99    49    48    1
   100    45    48    1
   101    45    44    1
   102    79    77    1
   103    34    35    1
   104    34    33    1
   105    35    36    2
   106    77    76    2
   107    77    78    1
   108    76    75    1
   109    75    74    1
   110    74    73    1
   111    73    70    1
   112    69    70    1
   113    70    71    1
   114    71    72    2
