@<TRIPOS>MOLECULE
tmp/2tscA00.pdb
 155 148 0 0 0
SMALL
GASTEIGER

@<TRIPOS>ATOM
      1  N          9.5610   27.6120   25.8890 N.3    21  ARG21      -0.1231
      2  CA         8.9420   26.7690   24.8780 C.3    21  ARG21       0.1694
      3  C          7.9930   25.7080   25.4070 C.2    21  ARG21       0.2592
      4  O          6.9820   25.4230   24.6920 O.2    21  ARG21      -0.2718
      5  CB         9.9360   26.0930   23.9290 C.3    21  ARG21       0.0321
      6  CG        10.8960   25.2350   24.6920 C.3    21  ARG21       0.0489
      7  CD        11.2990   24.1100   23.7470 C.3    21  ARG21       0.2205
      8  NE        12.0670   23.2830   24.6620 N.pl3  21  ARG21      -0.0865
      9  CZ        11.5190   22.1970   25.1720 C.cat  21  ARG21       0.5346
     10  NH1       10.4420   21.6630   24.6230 N.pl3  21  ARG21       0.1354
     11  NH2       11.9570   21.6490   26.2820 N.pl3  21  ARG21       0.1354
     12  N          8.2580   25.0820   26.5530 N.am   22  THR22      -0.1953
     13  CA         7.3490   24.0420   27.0590 C.3    22  THR22       0.1897
     14  C          5.9570   24.6140   27.3280 C.2    22  THR22       0.2313
     15  O          4.9970   23.8240   27.5310 O.2    22  THR22      -0.2863
     16  CB         7.8170   23.2300   28.3410 C.3    22  THR22       0.1794
     17  OG1        7.5340   24.2400   29.3590 O.3    22  THR22      -0.2208
     18  CG2        9.2920   22.8200   28.3250 C.3    22  THR22       0.0378
     19  N         22.3470    6.3530   33.0390 N.3    58  GLU58      -0.1301
     20  CA        22.4490    7.3460   31.9370 C.3    58  GLU58       0.1252
     21  C         23.9050    7.6210   31.6210 C.3    58  GLU58       0.2009
     22  O         24.0910    7.7640   30.4070 O.3    58  GLU58      -0.2188
     23  CB        21.7320    8.6270   32.2340 C.3    58  GLU58       0.0335
     24  CG        21.4010    9.6330   31.1550 C.3    58  GLU58       0.1156
     25  CD        21.2000   11.0400   31.6700 C.2    58  GLU58       0.3649
     26  OE1       20.5150   11.8790   31.1170 O.co2  58  GLU58      -0.2457
     27  OE2       21.9270   11.2710   32.7120 O.co2  58  GLU58      -0.2457
     28  N         14.2000    9.3940   29.8650 N.3    80  TRP80      -0.1298
     29  CA        14.1770    9.8720   28.4970 C.3    80  TRP80       0.1291
     30  C         13.0190    9.4620   27.6310 C.3    80  TRP80       0.2013
     31  O         13.0590    9.9310   26.4530 O.3    80  TRP80      -0.2188
     32  CB        15.5630    9.4210   27.9030 C.3    80  TRP80       0.0497
     33  CG        16.7040   10.2690   28.3690 C.ar   80  TRP80      -0.0001
     34  CD1       17.7650    9.9420   29.1340 C.ar   80  TRP80       0.0946
     35  CD2       16.9220   11.6390   27.9590 C.ar   80  TRP80       0.0152
     36  NE1       18.6150   11.0300   29.2990 N.ar   80  TRP80      -0.2442
     37  CE2       18.1270   12.0550   28.5510 C.ar   80  TRP80       0.0810
     38  CE3       16.2320   12.4850   27.1030 C.ar   80  TRP80       0.0012
     39  CZ2       18.6270   13.3340   28.3880 C.ar   80  TRP80       0.0191
     40  CZ3       16.7340   13.7560   26.9150 C.ar   80  TRP80       0.0001
     41  CH2       17.9160   14.1700   27.5380 C.ar   80  TRP80       0.0015
     42  N         24.1060   13.5870   23.2720 N.3    94  TYR94      -0.1241
     43  CA        25.2660   13.4320   24.0760 C.3    94  TYR94       0.1605
     44  C         26.1610   12.2550   23.6960 C.2    94  TYR94       0.2264
     45  O         27.2880   12.5260   23.3360 O.2    94  TYR94      -0.2867
     46  CB        24.9160   13.4090   25.5630 C.3    94  TYR94       0.0534
     47  CG        23.9460   14.4820   26.0570 C.ar   94  TYR94      -0.0201
     48  CD1       24.3510   15.7710   26.3500 C.ar   94  TYR94      -0.0009
     49  CD2       22.5950   14.1750   26.1860 C.ar   94  TYR94      -0.0009
     50  CE1       23.4120   16.6940   26.8040 C.ar   94  TYR94       0.0417
     51  CE2       21.6470   15.1140   26.5810 C.ar   94  TYR94       0.0417
     52  CZ        22.0640   16.4000   26.9260 C.ar   94  TYR94       0.1957
     53  OH        21.1440   17.3420   27.3790 O.3    94  TYR94      -0.2866
     54  N         16.1930   16.7590   21.7660 N.3   143  LEU143     -0.1231
     55  CA        16.2460   17.9460   22.6550 C.3   143  LEU143      0.1693
     56  C         17.6680   18.5120   22.5750 C.2   143  LEU143      0.2591
     57  O         18.5290   17.5760   22.6450 O.2   143  LEU143     -0.2718
     58  CB        15.8810   17.3980   24.0350 C.3   143  LEU143      0.0284
     59  CG        15.5120   18.3840   25.1100 C.3   143  LEU143      0.0019
     60  CD1       14.1570   18.9460   24.6710 C.3   143  LEU143      0.0001
     61  CD2       15.4990   17.6940   26.4660 C.3   143  LEU143      0.0001
     62  N         17.8850   19.8130   22.4410 N.am  144  ALA144     -0.1980
     63  CA        19.3150   20.3180   22.4160 C.3   144  ALA144      0.1597
     64  C         20.0400   20.0630   23.6970 C.2   144  ALA144      0.2287
     65  O         19.3470   20.0230   24.7570 O.2   144  ALA144     -0.2864
     66  CB        19.2740   21.7970   22.0210 C.3   144  ALA144      0.0319
     67  N         21.5550   20.0210   27.2190 N.3   146  CYS146     -0.1221
     68  CA        21.4360   21.0190   28.3240 C.3   146  CYS146      0.1808
     69  C         22.8370   21.2610   28.9150 C.2   146  CYS146      0.2601
     70  O         23.2910   22.4140   29.0280 O.2   146  CYS146     -0.2717
     71  CB        20.5020   20.5160   29.3750 C.3   146  CYS146      0.0970
     72  SG        18.8000   20.3960   28.6930 S.3   146  CYS146     -0.0800
     73  N         23.4810   20.1460   29.2320 N.am  147  HIS147     -0.1975
     74  CA        24.8770   20.1990   29.7040 C.3   147  HIS147      0.1656
     75  C         25.6720   20.1200   28.4180 C.2   147  HIS147      0.2291
     76  O         25.9380   19.0830   27.7940 O.2   147  HIS147     -0.2864
     77  CB        25.2600   19.1040   30.6930 C.3   147  HIS147      0.0771
     78  CG        24.7140   17.7490   30.3490 C.ar  147  HIS147      0.0820
     79  ND1       25.4470   16.6710   29.8860 N.ar  147  HIS147     -0.2267
     80  CD2       23.4330   17.2940   30.5510 C.ar  147  HIS147      0.1154
     81  CE1       24.6500   15.6230   29.8130 C.ar  147  HIS147      0.1986
     82  NE2       23.4200   15.9510   30.2110 N.ar  147  HIS147     -0.2212
     83  N         26.3930   24.6960   31.5860 N.3   165  GLN165     -0.1231
     84  CA        25.0270   24.2270   31.3850 C.3   165  GLN165      0.1698
     85  C         24.2740   25.4010   30.7970 C.2   165  GLN165      0.2592
     86  O         24.0670   26.3120   31.6040 O.2   165  GLN165     -0.2718
     87  CB        24.4100   23.6220   32.6170 C.3   165  GLN165      0.0381
     88  CG        22.9990   23.1040   32.5030 C.3   165  GLN165      0.0905
     89  CD        22.6220   21.9840   33.4300 C.2   165  GLN165      0.2608
     90  OE1       23.4930   21.5310   34.1970 O.2   165  GLN165     -0.2717
     91  NE2       21.4250   21.4570   33.5040 N.am  165  GLN165     -0.0878
     92  N         23.8430   25.3290   29.5540 N.am  166  ARG166     -0.1962
     93  CA        23.1060   26.4470   28.8850 C.3   166  ARG166      0.1772
     94  C         21.6640   26.6840   29.3300 C.2   166  ARG166      0.2620
     95  O         21.0510   27.7550   29.3610 O.2   166  ARG166     -0.2715
     96  CB        23.2270   26.2350   27.3650 C.3   166  ARG166      0.0603
     97  CG        22.5460   25.1160   26.6450 C.2   166  ARG166      0.0163
     98  CD        21.2520   25.2960   25.9760 C.2   166  ARG166      0.1886
     99  NE        20.5300   24.0690   25.6290 N.pl3 166  ARG166     -0.0578
    100  CZ        19.2190   23.9310   25.7350 C.cat 166  ARG166      0.5393
    101  NH1       18.5150   22.8100   25.6240 N.pl3 166  ARG166      0.1358
    102  NH2       18.5760   25.0480   25.9960 N.pl3 166  ARG166      0.1358
    103  N         21.0510   25.6020   29.7720 N.am  167  SER167     -0.1950
    104  CA        19.7430   25.4190   30.3120 C.3   167  SER167      0.1924
    105  C         19.6300   24.5160   31.5550 C.2   167  SER167      0.2314
    106  O         19.9870   23.3090   31.5470 O.2   167  SER167     -0.2863
    107  CB        18.7270   25.1230   29.1920 C.3   167  SER167      0.2116
    108  OG        17.4270   25.3730   29.6760 O.3   167  SER167     -0.2180
    109  N         16.9500   23.0210   34.5700 N.3   169  ASP169     -0.1239
    110  CA        15.7100   22.8840   35.3870 C.3   169  ASP169      0.1674
    111  C         16.3130   22.7120   36.7490 C.2   169  ASP169      0.2266
    112  O         16.8220   21.5990   37.0500 O.2   169  ASP169     -0.2867
    113  CB        14.8280   21.8460   34.7770 C.3   169  ASP169      0.1410
    114  CG        13.6880   21.4600   35.6440 C.2   169  ASP169      0.3668
    115  OD1       13.7890   21.7790   36.7560 O.co2 169  ASP169     -0.2456
    116  OD2       12.6830   20.8140   35.3030 O.co2 169  ASP169     -0.2456
    117  N         16.3140   18.6520   37.0660 N.3   173  GLY173     -0.1285
    118  CA        17.5480   18.4180   36.4370 C.3   173  GLY173      0.1447
    119  C         18.8270   18.5880   37.1540 C.3   173  GLY173      0.2025
    120  O         19.5400   17.5560   37.1280 O.3   173  GLY173     -0.2188
    121  N         22.3230   16.2270   37.0570 N.3   177  ASN177     -0.1296
    122  CA        23.4150   16.7450   36.3100 C.3   177  ASN177      0.1339
    123  C         24.6340   16.8460   37.2030 C.3   177  ASN177      0.2014
    124  O         25.5980   16.4040   36.6560 O.3   177  ASN177     -0.2188
    125  CB        23.1280   18.0830   35.6780 C.3   177  ASN177      0.1102
    126  CG        22.1050   17.9400   34.5880 C.2   177  ASN177      0.2623
    127  OD1       21.2080   18.7350   34.4210 O.2   177  ASN177     -0.2716
    128  ND2       22.2470   16.9220   33.7390 N.am  177  ASN177     -0.0877
    129  N         16.6490   28.1480   35.8260 N.3   207  HIS207     -0.1241
    130  CA        15.2320   28.3820   36.1740 C.3   207  HIS207      0.1621
    131  C         14.5970   27.3420   37.0340 C.2   207  HIS207      0.2264
    132  O         15.0930   26.2640   37.1530 O.2   207  HIS207     -0.2867
    133  CB        14.3380   28.3460   34.8850 C.3   207  HIS207      0.0745
    134  CG        14.6910   27.2730   33.8820 C.ar  207  HIS207      0.0817
    135  ND1       15.7320   27.3190   33.0220 N.ar  207  HIS207     -0.2268
    136  CD2       14.0880   26.0900   33.6790 C.ar  207  HIS207      0.1154
    137  CE1       15.7200   26.1890   32.2930 C.ar  207  HIS207      0.1986
    138  NE2       14.7080   25.4260   32.6760 N.ar  207  HIS207     -0.2212
    139  N         10.5550   25.9230   37.2820 N.3   209  TYR209     -0.1241
    140  CA         9.2510   25.9460   36.5900 C.3   209  TYR209      0.1605
    141  C          8.2460   26.3560   37.6070 C.2   209  TYR209      0.2264
    142  O          8.3060   26.3000   38.8510 O.2   209  TYR209     -0.2867
    143  CB         9.0960   24.5270   35.9940 C.3   209  TYR209      0.0534
    144  CG         9.7700   24.3900   34.6370 C.ar  209  TYR209     -0.0201
    145  CD1       11.0220   23.7070   34.5560 C.ar  209  TYR209     -0.0009
    146  CD2        9.1810   24.8760   33.4540 C.ar  209  TYR209     -0.0009
    147  CE1       11.6700   23.5740   33.3520 C.ar  209  TYR209      0.0417
    148  CE2        9.8380   24.7070   32.2170 C.ar  209  TYR209      0.0417
    149  CZ        11.0680   24.0660   32.1940 C.ar  209  TYR209      0.1957
    150  OH        11.7080   23.9160   31.0060 O.3   209  TYR209     -0.2866
    151  N          8.5250   19.1920   32.4710 N.3   263  ALA263     -0.1245
    152  CA         7.9580   19.9860   31.3810 C.3   263  ALA263      0.1562
    153  C          8.5230   19.5460   30.0030 C.2   263  ALA263      0.2260
    154  O          9.7210   19.4100   29.7210 O.2   263  ALA263     -0.2867
    155  CB         8.2450   21.4740   31.5210 C.3   263  ALA263      0.0290
@<TRIPOS>BOND
     1    54    55    1
     2    66    63    1
     3    63    62    1
     4    63    64    1
     5    62    56   am
     6    56    57    2
     7    56    55    1
     8    55    58    1
     9    42    43    1
    10    45    44    2
    11    44    43    1
    12    64    65    2
    13     7     8    1
    14     7     6    1
    15     5     6    1
    16     5     2    1
    17    58    59    1
    18    43    46    1
    19    10     9    1
    20     8     9    2
    21    60    59    1
    22     4     3    2
    23     2     3    1
    24     2     1    1
    25    59    61    1
    26     9    11    1
    27     3    12   am
    28    46    47    1
    29   101   100    1
    30    99   100    2
    31    99    98    1
    32   100   102    1
    33    98    97    2
    34    47    49   ar
    35    47    48   ar
    36    49    51   ar
    37    48    50   ar
    38    31    30    1
    39    12    13    1
    40    51    52   ar
    41    97    96    1
    42    50    52   ar
    43    40    38   ar
    44    40    41   ar
    45    52    53    1
    46    13    14    1
    47    13    16    1
    48    38    35   ar
    49    67    68    1
    50    14    15    2
    51    96    93    1
    52    41    39   ar
    53    30    29    1
    54    76    75    2
    55    32    33    1
    56    32    29    1
    57    35    33   ar
    58    35    37   ar
    59    68    69    1
    60    68    71    1
    61    18    16    1
    62    16    17    1
    63    33    34   ar
    64    39    37   ar
    65    75    74    1
    66    29    28    1
    67    37    36   ar
    68    72    71    1
    69    93    94    1
    70    93    92    1
    71    69    70    2
    72    69    73   am
    73    34    36   ar
    74   107   108    1
    75   107   104    1
    76    73    74    1
    77    94    95    2
    78    94   103   am
    79    92    85   am
    80    74    77    1
    81   154   153    2
    82   103   104    1
    83    81    79   ar
    84    81    82   ar
    85    79    78   ar
    86   153   152    1
    87    82    80   ar
    88   104   105    1
    89    78    80   ar
    90    78    77    1
    91    22    21    1
    92    85    84    1
    93    85    86    2
    94   150   149    1
    95    26    25   ar
    96    24    25    1
    97    24    23    1
    98   152   155    1
    99   152   151    1
   100    84    83    1
   101    84    87    1
   102   106   105    2
   103    21    20    1
   104    25    27   ar
   105    20    23    1
   106    20    19    1
   107   149   148   ar
   108   149   147   ar
   109   148   146   ar
   110   137   138   ar
   111   137   135   ar
   112    88    87    1
   113    88    89    1
   114   138   136   ar
   115   135   134   ar
   116   147   145   ar
   117    89    91   am
   118    89    90    2
   119   146   144   ar
   120   136   134   ar
   121   128   126   am
   122   134   133    1
   123   127   126    2
   124   145   144   ar
   125   109   110    1
   126   126   125    1
   127   144   143    1
   128   113   110    1
   129   113   114    1
   130   133   130    1
   131   116   114   ar
   132   110   111    1
   133   114   115   ar
   134   125   122    1
   135   129   130    1
   136   143   140    1
   137   130   131    1
   138   122   121    1
   139   122   123    1
   140   118   117    1
   141   118   119    1
   142   140   139    1
   143   140   141    1
   144   124   123    1
   145   111   112    2
   146   131   132    2
   147   120   119    1
   148   141   142    2
