@<TRIPOS>MOLECULE
tmp/2udpB01.pdb
 227 219 0 0 0
SMALL
GASTEIGER

@<TRIPOS>ATOM
      1  N         -0.3740   25.1030   -6.3210 N.3    84  LYS84      -0.1245
      2  CA        -0.2980   25.8310   -7.5730 C.3    84  LYS84       0.1561
      3  C         -1.6130   26.0890   -8.2740 C.2    84  LYS84       0.2260
      4  O         -1.5980   26.4470   -9.4390 O.2    84  LYS84      -0.2867
      5  CB         0.5260   25.0130   -8.5110 C.3    84  LYS84       0.0271
      6  CG        -0.1440   23.7060   -8.7800 C.3    84  LYS84       0.0035
      7  CD         0.5240   23.0430   -9.9700 C.3    84  LYS84       0.0206
      8  CE        -0.1730   21.7550  -10.3570 C.3    84  LYS84       0.1093
      9  NZ         0.3710   21.2120  -11.6130 N.3    84  LYS84      -0.1314
     10  N         -4.2730   28.3950   -9.1340 N.3    86  VAL86      -0.1245
     11  CA        -4.4610   29.8460   -9.1230 C.3    86  VAL86       0.1561
     12  C         -5.7420   30.3270   -8.4680 C.2    86  VAL86       0.2260
     13  O         -5.6990   31.2190   -7.6160 O.2    86  VAL86      -0.2867
     14  CB        -4.2430   30.4510  -10.5190 C.3    86  VAL86       0.0252
     15  CG1       -4.4240   31.9470  -10.6270 C.3    86  VAL86       0.0019
     16  CG2       -2.8480   30.0970  -10.9990 C.3    86  VAL86       0.0019
     17  N          7.8720   30.7300  -12.1390 N.3   124  SER124     -0.1217
     18  CA         6.7500   30.7860  -13.0560 C.3   124  SER124      0.1889
     19  C          6.7540   32.0570  -13.8780 C.2   124  SER124      0.2288
     20  O          7.1890   33.1180  -13.4220 O.2   124  SER124     -0.2866
     21  CB         5.5400   30.9200  -12.1270 C.3   124  SER124      0.2089
     22  OG         4.3530   31.2940  -12.8080 O.3   124  SER124     -0.2183
     23  N          4.4720   33.9180  -14.2660 N.3   126  THR126     -0.1218
     24  CA         3.6170   34.8730  -13.5620 C.3   126  THR126      0.1862
     25  C          4.3520   36.0570  -12.9550 C.2   126  THR126      0.2287
     26  O          3.7570   37.1200  -12.7570 O.2   126  THR126     -0.2866
     27  CB         2.7630   34.2470  -12.4230 C.3   126  THR126      0.1770
     28  OG1        3.5860   33.7610  -11.3760 O.3   126  THR126     -0.2211
     29  CG2        1.8760   33.1060  -12.9190 C.3   126  THR126      0.0375
     30  N         -1.0480   33.0630   -5.6860 N.3   149  TYR149     -0.1241
     31  CA        -0.1170   32.0900   -6.2400 C.3   149  TYR149      0.1605
     32  C          1.0810   32.7650   -6.9020 C.2   149  TYR149      0.2264
     33  O          2.2260   32.5090   -6.5780 O.2   149  TYR149     -0.2867
     34  CB        -0.7600   31.0900   -7.2230 C.3   149  TYR149      0.0534
     35  CG         0.2640   30.3330   -8.0180 C.ar  149  TYR149     -0.0201
     36  CD1        0.9400   29.2790   -7.4040 C.ar  149  TYR149     -0.0009
     37  CD2        0.6050   30.6720   -9.3330 C.ar  149  TYR149     -0.0009
     38  CE1        1.9180   28.5650   -8.0980 C.ar  149  TYR149      0.0417
     39  CE2        1.5640   29.9550  -10.0500 C.ar  149  TYR149      0.0417
     40  CZ         2.1760   28.8580   -9.4390 C.ar  149  TYR149      0.1957
     41  OH         3.1240   28.1200  -10.0790 O.3   149  TYR149     -0.2866
     42  N          6.6080   28.0300  -17.9070 N.3   178  PHE178     -0.1227
     43  CA         5.4720   28.4670  -18.6810 C.3   178  PHE178      0.1736
     44  C          4.3220   27.4610  -18.5930 C.2   178  PHE178      0.2595
     45  O          3.6530   27.3540  -17.5620 O.2   178  PHE178     -0.2718
     46  CB         5.9620   28.8370  -20.0990 C.3   178  PHE178      0.0547
     47  CG         6.7290   30.1420  -20.0540 C.ar  178  PHE178     -0.0202
     48  CD1        7.9810   30.2870  -19.4460 C.ar  178  PHE178     -0.0042
     49  CD2        6.1270   31.2620  -20.6320 C.ar  178  PHE178     -0.0042
     50  CE1        8.6230   31.5280  -19.3880 C.ar  178  PHE178     -0.0003
     51  CE2        6.7610   32.5040  -20.6010 C.ar  178  PHE178     -0.0003
     52  CZ         8.0230   32.6220  -20.0100 C.ar  178  PHE178     -0.0000
     53  N          4.1220   26.6280  -19.6140 N.am  179  ASN179     -0.1961
     54  CA         3.0060   25.6970  -19.5300 C.3   179  ASN179      0.1804
     55  C          3.4170   24.2510  -19.7720 C.2   179  ASN179      0.2463
     56  O          3.2790   23.7250  -20.8730 O.2   179  ASN179     -0.2730
     57  CB         1.8220   26.0370  -20.5180 C.3   179  ASN179      0.1195
     58  CG         1.2510   27.4140  -20.3580 C.2   179  ASN179      0.2630
     59  OD1        1.9930   28.4210  -20.4050 O.2   179  ASN179     -0.2716
     60  ND2       -0.0510   27.4600  -20.0920 N.am  179  ASN179     -0.0877
     61  N          3.8310   23.5580  -18.7190 N.am  180  PRO180     -0.2727
     62  CA         4.2520   22.1770  -18.8820 C.3   180  PRO180      0.1402
     63  C          3.1100   21.2470  -19.3010 C.2   180  PRO180      0.2269
     64  O          2.0180   21.2570  -18.7230 O.2   180  PRO180     -0.2865
     65  CB         4.9430   21.7960  -17.5530 C.3   180  PRO180      0.0296
     66  CG         5.2220   23.1010  -16.8310 C.3   180  PRO180      0.0237
     67  CD         4.3310   24.1680  -17.4490 C.3   180  PRO180      0.0939
     68  N         -9.8230   19.3610  -13.4380 N.2   197  PRO197     -0.2571
     69  CA        -8.5450   19.9300  -13.7930 C.3   197  PRO197      0.2026
     70  C         -8.6110   21.3940  -14.1750 C.2   197  PRO197      0.2683
     71  O         -9.4200   21.7770  -15.0080 O.2   197  PRO197     -0.2709
     72  CB        -8.0100   19.1790  -15.0100 C.2   197  PRO197      0.0085
     73  CG        -9.1090   18.2300  -15.4740 C.2   197  PRO197      0.0180
     74  CD       -10.2830   18.4160  -14.5230 C.2   197  PRO197      0.0938
     75  N         -7.6380   22.1520  -13.6780 N.am  198  ASN198     -0.1953
     76  CA        -7.5340   23.5670  -13.9730 C.3   198  ASN198      0.1820
     77  C         -6.8700   23.8460  -15.3090 C.2   198  ASN198      0.2621
     78  O         -7.1200   24.8750  -15.9310 O.2   198  ASN198     -0.2715
     79  CB        -6.7860   24.2880  -12.8280 C.3   198  ASN198      0.1195
     80  CG        -7.6000   24.1580  -11.5650 C.2   198  ASN198      0.2630
     81  OD1       -8.8300   24.3720  -11.5910 O.2   198  ASN198     -0.2716
     82  ND2       -6.9670   23.7040  -10.4900 N.am  198  ASN198     -0.0877
     83  N         -5.9680   22.9580  -15.7080 N.am  199  ASN199     -0.1958
     84  CA        -5.2050   23.1910  -16.9190 C.3   199  ASN199      0.1819
     85  C         -5.8170   22.6060  -18.1780 C.2   199  ASN199      0.2621
     86  O         -6.4910   21.5790  -18.1940 O.2   199  ASN199     -0.2715
     87  CB        -3.7030   22.9870  -16.7950 C.3   199  ASN199      0.1195
     88  CG        -3.1550   23.6360  -15.5490 C.2   199  ASN199      0.2630
     89  OD1       -2.5230   22.9470  -14.7480 O.2   199  ASN199     -0.2716
     90  ND2       -3.3760   24.9440  -15.4040 N.am  199  ASN199     -0.0877
     91  N         -5.4370   23.2150  -19.2810 N.am  200  LEU200     -0.1977
     92  CA        -6.0090   22.8670  -20.5700 C.3   200  LEU200      0.1596
     93  C         -5.7950   21.4250  -20.9950 C.2   200  LEU200      0.2287
     94  O         -6.7340   20.7360  -21.3850 O.2   200  LEU200     -0.2864
     95  CB        -5.5730   23.9180  -21.6240 C.3   200  LEU200      0.0297
     96  CG        -5.9600   23.6630  -23.0770 C.3   200  LEU200      0.0022
     97  CD1       -7.4580   23.8760  -23.2570 C.3   200  LEU200      0.0001
     98  CD2       -5.2270   24.6440  -23.9850 C.3   200  LEU200      0.0001
     99  N         -7.6050   18.6370  -19.1650 N.3   203  TYR203     -0.1241
    100  CA        -9.0160   18.6970  -19.4810 C.3   203  TYR203      0.1605
    101  C         -9.3230   18.0220  -20.8230 C.2   203  TYR203      0.2264
    102  O        -10.0920   17.0530  -20.9190 O.2   203  TYR203     -0.2867
    103  CB        -9.5080   20.1500  -19.3380 C.3   203  TYR203      0.0534
    104  CG       -11.0050   20.1760  -19.1310 C.ar  203  TYR203     -0.0201
    105  CD1      -11.8730   19.8010  -20.1560 C.ar  203  TYR203     -0.0009
    106  CD2      -11.5500   20.4400  -17.8730 C.ar  203  TYR203     -0.0009
    107  CE1      -13.2400   19.6450  -19.9070 C.ar  203  TYR203      0.0417
    108  CE2      -12.9220   20.3790  -17.6300 C.ar  203  TYR203      0.0417
    109  CZ       -13.7640   19.9180  -18.6420 C.ar  203  TYR203      0.1957
    110  OH       -15.1110   19.7360  -18.4130 O.3   203  TYR203     -0.2866
    111  N        -14.8320   20.3920  -23.6030 N.3   215  LEU215     -0.1231
    112  CA       -13.8990   21.3830  -23.1370 C.3   215  LEU215      0.1693
    113  C        -14.4410   22.7930  -23.3160 C.2   215  LEU215      0.2592
    114  O        -14.8600   23.1820  -24.3980 O.2   215  LEU215     -0.2718
    115  CB       -12.5560   21.2120  -23.9000 C.3   215  LEU215      0.0284
    116  CG       -11.6750   22.4550  -23.9020 C.3   215  LEU215      0.0019
    117  CD1      -10.8650   22.5760  -22.6020 C.3   215  LEU215      0.0001
    118  CD2      -10.7000   22.3530  -25.0590 C.3   215  LEU215      0.0001
    119  N        -14.3870   23.5980  -22.2610 N.am  216  ALA216     -0.1966
    120  CA       -14.6620   25.0120  -22.3760 C.3   216  ALA216      0.1728
    121  C        -13.4050   25.8160  -22.7090 C.2   216  ALA216      0.2616
    122  O        -12.4310   25.8450  -21.9650 O.2   216  ALA216     -0.2715
    123  CB       -15.2130   25.5640  -21.0770 C.3   216  ALA216      0.0334
    124  N        -13.4160   26.4960  -23.8440 N.am  217  ILE217     -0.1963
    125  CA       -12.3030   27.3470  -24.2040 C.3   217  ILE217      0.1727
    126  C        -12.6110   28.7170  -23.6460 C.2   217  ILE217      0.2616
    127  O        -13.6640   29.2510  -23.9750 O.2   217  ILE217     -0.2715
    128  CB       -12.2730   27.3640  -25.7300 C.3   217  ILE217      0.0290
    129  CG1      -11.9370   25.9470  -26.1980 C.3   217  ILE217      0.0022
    130  CG2      -11.3540   28.4280  -26.3100 C.3   217  ILE217      0.0023
    131  CD1      -11.1880   25.8370  -27.5160 C.3   217  ILE217      0.0001
    132  N        -11.8030   29.2280  -22.7140 N.am  218  PHE218     -0.1974
    133  CA       -12.1290   30.5220  -22.1160 C.3   218  PHE218      0.1639
    134  C        -11.7920   31.7340  -22.9760 C.2   218  PHE218      0.2290
    135  O        -10.6350   32.1470  -23.0510 O.2   218  PHE218     -0.2864
    136  CB       -11.6860   30.6930  -20.6490 C.3   218  PHE218      0.0560
    137  CG       -11.9490   29.4570  -19.8120 C.ar  218  PHE218     -0.0200
    138  CD1      -13.2080   28.8650  -19.7170 C.ar  218  PHE218     -0.0042
    139  CD2      -10.8860   28.7890  -19.2020 C.ar  218  PHE218     -0.0042
    140  CE1      -13.4300   27.7470  -18.9150 C.ar  218  PHE218     -0.0003
    141  CE2      -11.0800   27.6570  -18.4110 C.ar  218  PHE218     -0.0003
    142  CZ       -12.3570   27.1120  -18.2900 C.ar  218  PHE218     -0.0000
    143  N        -10.1730   37.2270  -27.5210 N.3   222  TYR222     -0.1241
    144  CA        -8.7650   37.5780  -27.3930 C.3   222  TYR222      0.1605
    145  C         -8.1440   38.1790  -28.6510 C.2   222  TYR222      0.2264
    146  O         -8.3960   37.7680  -29.7840 O.2   222  TYR222     -0.2867
    147  CB        -7.8190   36.8150  -26.3770 C.3   222  TYR222      0.0534
    148  CG        -8.2280   36.5730  -24.9050 C.ar  222  TYR222     -0.0201
    149  CD1       -7.9390   37.4670  -23.8680 C.ar  222  TYR222     -0.0009
    150  CD2       -8.7700   35.3530  -24.4850 C.ar  222  TYR222     -0.0009
    151  CE1       -8.3160   37.2550  -22.5360 C.ar  222  TYR222      0.0417
    152  CE2       -9.1040   35.0800  -23.1520 C.ar  222  TYR222      0.0417
    153  CZ        -8.8320   36.0140  -22.1520 C.ar  222  TYR222      0.1957
    154  OH        -9.0350   35.7080  -20.8310 O.3   222  TYR222     -0.2866
    155  N         -6.7260   32.1070  -26.2830 N.3   229  GLY229     -0.1225
    156  CA        -5.5090   32.2990  -25.5140 C.3   229  GLY229      0.1811
    157  C         -4.2920   31.6050  -26.1180 C.2   229  GLY229      0.2280
    158  O         -4.3440   30.4260  -26.4850 O.2   229  GLY229     -0.2866
    159  N         -0.1850   30.5880  -25.5670 N.3   231  ARG231     -0.1245
    160  CA         0.7290   30.1830  -24.5040 C.3   231  ARG231      0.1563
    161  C          1.9570   29.4230  -24.9890 C.2   231  ARG231      0.2260
    162  O          1.9960   28.8320  -26.0680 O.2   231  ARG231     -0.2867
    163  CB         0.0240   29.1990  -23.5460 C.3   231  ARG231      0.0307
    164  CG        -1.1480   29.7320  -22.7250 C.3   231  ARG231      0.0489
    165  CD        -0.7350   30.9300  -21.8550 C.3   231  ARG231      0.2205
    166  NE        -1.7580   31.4170  -20.9170 N.pl3 231  ARG231     -0.0865
    167  CZ        -2.5810   32.4470  -21.1400 C.cat 231  ARG231      0.5346
    168  NH1       -2.5390   33.1250  -22.2820 N.pl3 231  ARG231      0.1354
    169  NH2       -3.4280   32.8580  -20.1860 N.pl3 231  ARG231      0.1354
    170  N          3.7680   26.2400  -24.6260 N.3   233  TYR233     -0.1241
    171  CA         3.6850   24.8740  -24.1350 C.3   233  TYR233      0.1605
    172  C          5.0320   24.1690  -24.1640 C.2   233  TYR233      0.2264
    173  O          5.7120   24.1610  -25.1870 O.2   233  TYR233     -0.2867
    174  CB         2.5420   24.0310  -24.8000 C.3   233  TYR233      0.0534
    175  CG         1.1710   24.6430  -24.5910 C.ar  233  TYR233     -0.0201
    176  CD1        0.4510   24.3930  -23.4240 C.ar  233  TYR233     -0.0009
    177  CD2        0.6790   25.6120  -25.4670 C.ar  233  TYR233     -0.0009
    178  CE1       -0.7330   25.0770  -23.1390 C.ar  233  TYR233      0.0417
    179  CE2       -0.5720   26.1910  -25.2700 C.ar  233  TYR233      0.0417
    180  CZ        -1.2510   25.9760  -24.0720 C.ar  233  TYR233      0.1957
    181  OH        -2.4340   26.6370  -23.8120 O.3   233  TYR233     -0.2866
    182  N         -5.2680   27.9840  -27.7570 N.3   269  VAL269     -0.1245
    183  CA        -6.0680   26.9160  -27.1940 C.3   269  VAL269      0.1561
    184  C         -6.5240   25.9620  -28.2860 C.2   269  VAL269      0.2260
    185  O         -6.3940   24.7430  -28.1400 O.2   269  VAL269     -0.2867
    186  CB        -7.2870   27.5660  -26.5910 C.3   269  VAL269      0.0252
    187  CG1       -8.2520   26.4700  -26.1750 C.3   269  VAL269      0.0019
    188  CG2       -6.8560   28.5420  -25.4900 C.3   269  VAL269      0.0019
    189  N        -11.7280   33.5390  -18.6060 N.3   292  ARG292     -0.1245
    190  CA       -11.4040   33.1560  -17.2490 C.3   292  ARG292      0.1563
    191  C        -10.6100   34.2520  -16.5410 C.2   292  ARG292      0.2260
    192  O         -9.5940   34.7200  -17.0520 O.2   292  ARG292     -0.2867
    193  CB       -10.5900   31.8960  -17.2950 C.3   292  ARG292      0.0307
    194  CG       -10.2960   31.4860  -15.8750 C.3   292  ARG292      0.0489
    195  CD        -9.5950   30.1380  -15.9040 C.3   292  ARG292      0.2205
    196  NE        -8.3150   30.2620  -16.6110 N.pl3 292  ARG292     -0.0865
    197  CZ        -7.4570   29.2520  -16.7720 C.cat 292  ARG292      0.5346
    198  NH1       -7.7150   28.0200  -16.3310 N.pl3 292  ARG292      0.1354
    199  NH2       -6.3100   29.5100  -17.3670 N.pl3 292  ARG292      0.1354
    200  N         -6.7690   35.6810  -16.8270 N.3   295  ASP295     -0.1225
    201  CA        -6.1060   35.2640  -18.0450 C.3   295  ASP295      0.1805
    202  C         -5.5200   36.4050  -18.8670 C.2   295  ASP295      0.2597
    203  O         -6.1760   37.4180  -19.1220 O.2   295  ASP295     -0.2718
    204  CB        -6.9020   34.2080  -18.8780 C.3   295  ASP295      0.1424
    205  CG        -7.0270   32.8550  -18.2160 C.2   295  ASP295      0.3668
    206  OD1       -6.4680   32.5040  -17.1820 O.co2 295  ASP295     -0.2456
    207  OD2       -7.7530   32.0490  -18.9340 O.co2 295  ASP295     -0.2456
    208  N         -4.2600   36.2200  -19.2670 N.am  296  LEU296     -0.1979
    209  CA        -3.5950   37.1060  -20.2070 C.3   296  LEU296      0.1596
    210  C         -3.8800   36.5670  -21.6010 C.2   296  LEU296      0.2287
    211  O         -4.0100   35.3550  -21.8110 O.2   296  LEU296     -0.2864
    212  CB        -2.0710   37.2490  -20.0310 C.3   296  LEU296      0.0297
    213  CG        -1.6220   38.0240  -18.8040 C.3   296  LEU296      0.0022
    214  CD1       -0.1300   37.7470  -18.5840 C.3   296  LEU296      0.0001
    215  CD2       -1.9220   39.5080  -19.0210 C.3   296  LEU296      0.0001
    216  N          1.2270   34.9900  -24.3470 N.3   299  TYR299     -0.1241
    217  CA         2.6040   35.1250  -23.9180 C.3   299  TYR299      0.1605
    218  C          3.4090   33.8690  -24.1900 C.2   299  TYR299      0.2264
    219  O          2.8960   32.7510  -24.3080 O.2   299  TYR299     -0.2867
    220  CB         2.8970   35.7470  -22.5280 C.3   299  TYR299      0.0534
    221  CG         2.3150   34.9570  -21.3860 C.ar  299  TYR299     -0.0201
    222  CD1        0.9870   35.1600  -21.0060 C.ar  299  TYR299     -0.0009
    223  CD2        3.0390   33.9060  -20.8160 C.ar  299  TYR299     -0.0009
    224  CE1        0.4020   34.3310  -20.0480 C.ar  299  TYR299      0.0417
    225  CE2        2.4580   33.0700  -19.8580 C.ar  299  TYR299      0.0417
    226  CZ         1.1010   33.2160  -19.5720 C.ar  299  TYR299      0.1957
    227  OH         0.5210   32.3620  -18.6630 O.3   299  TYR299     -0.2866
@<TRIPOS>BOND
     1   146   145    2
     2   145   144    1
     3   184   185    2
     4   184   183    1
     5   182   183    1
     6   143   144    1
     7   131   129    1
     8   144   147    1
     9   183   186    1
    10   186   187    1
    11   186   188    1
    12   158   157    2
    13   147   148    1
    14   130   128    1
    15   155   156    1
    16   129   128    1
    17   157   156    1
    18   162   161    2
    19   128   125    1
    20   159   160    1
    21   177   179   ar
    22   177   175   ar
    23   179   180   ar
    24   173   172    2
    25   118   116    1
    26   161   160    1
    27   148   150   ar
    28   148   149   ar
    29   174   175    1
    30   174   171    1
    31   170   171    1
    32   175   176   ar
    33   160   163    1
    34   150   152   ar
    35   114   113    2
    36   216   217    1
    37   219   218    2
    38   125   124    1
    39   125   126    1
    40   218   217    1
    41   172   171    1
    42   180   181    1
    43   180   178   ar
    44    98    96    1
    45   127   126    2
    46   217   220    1
    47   116   115    1
    48   116   117    1
    49   115   112    1
    50   149   151   ar
    51   124   121   am
    52   126   132   am
    53   111   112    1
    54   163   164    1
    55   176   178   ar
    56   113   112    1
    57   113   119   am
    58    97    96    1
    59   152   153   ar
    60    96    95    1
    61   135   134    2
    62   134   133    1
    63   164   165    1
    64   132   133    1
    65   121   120    1
    66   121   122    2
    67   151   153   ar
    68   220   221    1
    69   120   119    1
    70   120   123    1
    71   168   167    1
    72   153   154    1
    73   133   136    1
    74   165   166    1
    75   211   210    2
    76    95    92    1
    77   210   209    1
    78   221   222   ar
    79   221   223   ar
    80    94    93    2
    81   167   166    2
    82   167   169    1
    83   222   224   ar
    84    93    92    1
    85   102   101    2
    86    56    55    2
    87   101   100    1
    88   223   225   ar
    89   136   137    1
    90    49    51   ar
    91    49    47   ar
    92    51    52   ar
    93    92    91    1
    94    57    58    1
    95    57    54    1
    96    59    58    2
    97    58    60   am
    98   209   212    1
    99   209   208    1
   100   105   107   ar
   101   105   104   ar
   102    46    47    1
   103    46    43    1
   104    47    48   ar
   105   224   226   ar
   106   212   213    1
   107    52    50   ar
   108   107   109   ar
   109   225   226   ar
   110   137   138   ar
   111   137   139   ar
   112    55    54    1
   113    55    61   am
   114   138   140   ar
   115    53    54    1
   116    53    44   am
   117   226   227    1
   118   100   103    1
   119   100    99    1
   120    48    50   ar
   121   103   104    1
   122    63    62    1
   123    63    64    2
   124    91    85   am
   125   208   202   am
   126   139   141   ar
   127   104   106   ar
   128   203   202    2
   129   215   213    1
   130   207   205   ar
   131   140   142   ar
   132    62    61    1
   133    62    65    1
   134   204   205    1
   135   204   201    1
   136   202   201    1
   137   213   214    1
   138    61    67    1
   139    43    44    1
   140    43    42    1
   141   109   110    1
   142   109   108   ar
   143   189   190    1
   144    44    45    2
   145   141   142   ar
   146   205   206   ar
   147    86    85    2
   148    85    84    1
   149   201   200    1
   150   106   108   ar
   151    65    66    1
   152    67    66    1
   153   199   197    1
   154   193   190    1
   155   193   194    1
   156   190   191    1
   157   192   191    2
   158    84    87    1
   159    84    83    1
   160    87    88    1
   161   197   196    2
   162   197   198    1
   163   196   195    1
   164    78    77    2
   165   195   194    1
   166    83    77   am
   167    88    90   am
   168    88    89    2
   169    73    72    2
   170    73    74    1
   171    77    76    1
   172    72    69    1
   173    71    70    2
   174    74    68    2
   175    23    24    1
   176    70    69    1
   177    70    75   am
   178    76    75    1
   179    76    79    1
   180    19    20    2
   181    19    18    1
   182    69    68    1
   183    24    25    1
   184    24    27    1
   185    18    17    1
   186    18    21    1
   187    25    26    2
   188    29    27    1
   189    79    80    1
   190    22    21    1
   191    27    28    1
   192     9     8    1
   193    81    80    2
   194    80    82   am
   195    16    14    1
   196    15    14    1
   197    14    11    1
   198     8     7    1
   199    41    40    1
   200    39    40   ar
   201    39    37   ar
   202     7     6    1
   203     4     3    2
   204    40    38   ar
   205    37    35   ar
   206    10    11    1
   207    11    12    1
   208     6     5    1
   209     5     2    1
   210    12    13    2
   211     3     2    1
   212    38    36   ar
   213    35    36   ar
   214    35    34    1
   215     2     1    1
   216    34    31    1
   217    32    33    2
   218    32    31    1
   219    31    30    1
