@<TRIPOS>MOLECULE
tmp/2ullA00.pdb
 74 71 0 0 0
SMALL
GASTEIGER

@<TRIPOS>ATOM
      1  N         16.2050   26.8200   21.2850 N.3    36  HIS36      -0.1241
      2  CA        14.7880   27.0290   21.0020 C.3    36  HIS36       0.1621
      3  C         14.2550   26.1060   19.9060 C.2    36  HIS36       0.2264
      4  O         13.0460   25.9940   19.7220 O.2    36  HIS36      -0.2867
      5  CB        14.4850   28.5060   20.6910 C.3    36  HIS36       0.0745
      6  CG        14.9400   28.9690   19.3450 C.ar   36  HIS36       0.0817
      7  ND1       16.1020   29.6720   19.1430 N.ar   36  HIS36      -0.2268
      8  CD2       14.3460   28.8780   18.1180 C.ar   36  HIS36       0.1154
      9  CE1       16.2190   30.0010   17.8650 C.ar   36  HIS36       0.1986
     10  NE2       15.1510   29.5220   17.2310 N.ar   36  HIS36      -0.2212
     11  N         17.3200   26.9450   27.0440 N.3    59  PHE59      -0.1241
     12  CA        16.5740   28.0360   26.4310 C.3    59  PHE59       0.1605
     13  C         15.3230   28.2640   27.2710 C.2    59  PHE59       0.2264
     14  O         14.6290   27.3060   27.6130 O.2    59  PHE59      -0.2867
     15  CB        16.1540   27.7120   24.9900 C.3    59  PHE59       0.0534
     16  CG        15.3570   28.8130   24.3420 C.ar   59  PHE59      -0.0203
     17  CD1       15.9910   29.9610   23.8740 C.ar   59  PHE59      -0.0042
     18  CD2       13.9650   28.7390   24.2700 C.ar   59  PHE59      -0.0042
     19  CE1       15.2520   31.0240   23.3470 C.ar   59  PHE59      -0.0003
     20  CE2       13.2170   29.7950   23.7460 C.ar   59  PHE59      -0.0003
     21  CZ        13.8610   30.9410   23.2850 C.ar   59  PHE59      -0.0000
     22  N         13.4120   37.5720   24.0710 N.3   123  TYR123     -0.1227
     23  CA        12.4910   36.7940   23.2510 C.3   123  TYR123      0.1736
     24  C         11.1420   36.5920   23.9270 C.2   123  TYR123      0.2595
     25  O         10.9830   36.8520   25.1220 O.2   123  TYR123     -0.2718
     26  CB        13.0940   35.4240   22.9200 C.3   123  TYR123      0.0548
     27  CG        14.3600   35.4640   22.0840 C.ar  123  TYR123     -0.0200
     28  CD1       14.4650   36.2950   20.9680 C.ar  123  TYR123     -0.0009
     29  CD2       15.4430   34.6440   22.3970 C.ar  123  TYR123     -0.0009
     30  CE1       15.6200   36.3060   20.1810 C.ar  123  TYR123      0.0417
     31  CE2       16.6000   34.6450   21.6190 C.ar  123  TYR123      0.0417
     32  CZ        16.6800   35.4770   20.5140 C.ar  123  TYR123      0.1957
     33  OH        17.8230   35.4770   19.7460 O.3   123  TYR123     -0.2866
     34  N         10.1700   36.1300   23.1460 N.am  124  ALA124     -0.1966
     35  CA         8.8290   35.8740   23.6560 C.3   124  ALA124      0.1728
     36  C          8.8510   34.9600   24.8850 C.2   124  ALA124      0.2616
     37  O          8.0730   35.1470   25.8230 O.2   124  ALA124     -0.2715
     38  CB         7.9680   35.2560   22.5590 C.3   124  ALA124      0.0334
     39  N          9.7850   34.0120   24.9020 N.am  125  GLU125     -0.1977
     40  CA         9.9010   33.0480   25.9960 C.3   125  GLU125      0.1602
     41  C         10.6420   33.5590   27.2280 C.2   125  GLU125      0.2287
     42  O         10.4840   33.0220   28.3240 O.2   125  GLU125     -0.2864
     43  CB        10.5810   31.7630   25.5010 C.3   125  GLU125      0.0415
     44  CG         9.8300   31.0300   24.3840 C.3   125  GLU125      0.1163
     45  CD        10.0850   31.5980   22.9920 C.2   125  GLU125      0.3649
     46  OE1       10.8260   32.5970   22.8700 O.co2 125  GLU125     -0.2457
     47  OE2        9.5500   31.0310   22.0090 O.co2 125  GLU125     -0.2457
     48  N         17.7690   29.6860   12.2940 N.3   143  SER143     -0.1217
     49  CA        18.0640   29.3590   13.6900 C.3   143  SER143      0.1889
     50  C         18.8350   28.0520   13.8220 C.2   143  SER143      0.2288
     51  O         18.5030   27.0620   13.1670 O.2   143  SER143     -0.2866
     52  CB        16.7690   29.2340   14.4920 C.3   143  SER143      0.2089
     53  OG        16.1310   30.4880   14.6470 O.3   143  SER143     -0.2183
     54  N         20.8730   32.4010   16.8430 N.3   159  SER159     -0.1202
     55  CA        19.8540   32.5010   17.8830 C.3   159  SER159      0.2020
     56  C         18.6260   33.2840   17.4140 C.2   159  SER159      0.2619
     57  O         17.5140   32.7750   17.4650 O.2   159  SER159     -0.2717
     58  CB        20.4320   33.1480   19.1440 C.3   159  SER159      0.2103
     59  OG        19.4490   33.2140   20.1690 O.3   159  SER159     -0.2182
     60  N         18.8260   34.5180   16.9620 N.am  160  GLY160     -0.1942
     61  CA        17.7010   35.3230   16.5110 C.3   160  GLY160      0.2014
     62  C         18.1240   36.6060   15.8260 C.2   160  GLY160      0.2639
     63  O         19.3130   36.8340   15.6230 O.2   160  GLY160     -0.2714
     64  N         17.1610   37.4500   15.4670 N.am  161  GLY161     -0.1954
     65  CA        17.5060   38.6940   14.7990 C.3   161  GLY161      0.1869
     66  C         16.3210   39.6140   14.6100 C.2   161  GLY161      0.2309
     67  O         15.1820   39.1920   14.8120 O.2   161  GLY161     -0.2863
     68  N         13.9710   40.5060   12.6850 N.3   163  VAL163     -0.1245
     69  CA        13.2440   40.0970   11.4930 C.3   163  VAL163      0.1561
     70  C         12.2450   41.1570   11.0640 C.2   163  VAL163      0.2260
     71  O         11.4600   41.6640   11.8690 O.2   163  VAL163     -0.2867
     72  CB        12.5180   38.7390   11.6980 C.3   163  VAL163      0.0252
     73  CG1       13.5360   37.6300   11.9490 C.3   163  VAL163      0.0019
     74  CG2       11.5450   38.8250   12.8610 C.3   163  VAL163      0.0019
@<TRIPOS>BOND
     1    70    69    1
     2    70    71    2
     3    69    72    1
     4    69    68    1
     5    72    73    1
     6    72    74    1
     7    48    49    1
     8    51    50    2
     9    49    50    1
    10    49    52    1
    11    52    53    1
    12    66    65    1
    13    66    67    2
    14    65    64    1
    15    64    62   am
    16    63    62    2
    17    62    61    1
    18    61    60    1
    19    54    55    1
    20    60    56   am
    21    10     9   ar
    22    10     8   ar
    23    56    57    2
    24    56    55    1
    25     9     7   ar
    26    55    58    1
    27     8     6   ar
    28     7     6   ar
    29    58    59    1
    30     6     5    1
    31     4     3    2
    32    33    32    1
    33     3     2    1
    34    30    32   ar
    35    30    28   ar
    36    32    31   ar
    37     5     2    1
    38    28    27   ar
    39     2     1    1
    40    31    29   ar
    41    47    45   ar
    42    27    29   ar
    43    27    26    1
    44    38    35    1
    45    46    45   ar
    46    26    23    1
    47    45    44    1
    48    34    35    1
    49    34    24   am
    50    23    24    1
    51    23    22    1
    52    21    19   ar
    53    21    20   ar
    54    19    17   ar
    55    35    36    1
    56    20    18   ar
    57    17    16   ar
    58    24    25    2
    59    18    16   ar
    60    16    15    1
    61    44    43    1
    62    36    39   am
    63    36    37    2
    64    39    40    1
    65    15    12    1
    66    43    40    1
    67    40    41    1
    68    12    11    1
    69    12    13    1
    70    41    42    2
    71    13    14    2
