@<TRIPOS>MOLECULE
tmp/2upjA00.pdb
 125 117 0 0 0
SMALL
GASTEIGER

@<TRIPOS>ATOM
      1  N         27.4120   24.1520    5.8760 N.3     8  ARG8       -0.1245
      2  CA        26.0830   24.6940    6.2270 C.3     8  ARG8        0.1563
      3  C         26.2430   26.1420    6.6630 C.2     8  ARG8        0.2260
      4  O         27.1700   26.4450    7.4300 O.2     8  ARG8       -0.2867
      5  CB        25.4880   23.9850    7.4370 C.3     8  ARG8        0.0307
      6  CG        24.9880   22.5840    7.1100 C.3     8  ARG8        0.0489
      7  CD        23.6710   22.0610    7.7440 C.3     8  ARG8        0.2205
      8  NE        24.0290   20.8100    8.4270 N.pl3   8  ARG8       -0.0865
      9  CZ        23.2620   19.9580    9.1380 C.cat   8  ARG8        0.5346
     10  NH1       22.3580   19.0760    8.6650 N.pl3   8  ARG8        0.1354
     11  NH2       23.3170   20.1500   10.4650 N.pl3   8  ARG8        0.1354
     12  N         20.8420   28.4330   11.4990 N.3    23  LEU23      -0.1301
     13  CA        21.1160   28.1900   10.0800 C.3    23  LEU23       0.1247
     14  C         20.4140   29.2910    9.2710 C.3    23  LEU23       0.2009
     15  O         19.2200   29.4310    9.5170 O.3    23  LEU23      -0.2188
     16  CB        20.4170   26.8610    9.7980 C.3    23  LEU23       0.0217
     17  CG        20.4920   26.3930    8.3360 C.3    23  LEU23       0.0015
     18  CD1       21.9190   26.1970    7.8400 C.3    23  LEU23       0.0000
     19  CD2       19.6010   25.1670    8.0650 C.3    23  LEU23       0.0000
     20  N         18.6080   30.3380    6.2310 N.3    25  ASP25      -0.1239
     21  CA        17.9120   29.4070    5.3400 C.3    25  ASP25       0.1674
     22  C         16.8660   30.1390    4.5430 C.2    25  ASP25       0.2266
     23  O         15.8090   30.4610    5.1000 O.2    25  ASP25      -0.2867
     24  CB        17.2100   28.4100    6.2410 C.3    25  ASP25       0.1410
     25  CG        16.1790   27.5760    5.5020 C.2    25  ASP25       0.3668
     26  OD1       15.9910   27.7270    4.2830 O.co2  25  ASP25      -0.2456
     27  OD2       15.5050   26.7240    6.1150 O.co2  25  ASP25      -0.2456
     28  N         14.9100   29.1060    2.1560 N.3    27  GLY27      -0.1210
     29  CA        13.7350   28.2400    1.9040 C.3    27  GLY27       0.1956
     30  C         12.6200   28.4820    2.9470 C.2    27  GLY27       0.2612
     31  O         11.4290   28.2330    2.6700 O.2    27  GLY27      -0.2717
     32  N         13.0070   29.0540    4.0850 N.am   28  ALA28      -0.1965
     33  CA        12.1110   29.3830    5.2040 C.3    28  ALA28       0.1728
     34  C         11.5880   30.8120    5.2380 C.2    28  ALA28       0.2616
     35  O         12.3020   31.8020    5.4050 O.2    28  ALA28      -0.2715
     36  CB        12.8070   29.1710    6.5290 C.3    28  ALA28       0.0334
     37  N         10.2980   30.9120    5.2590 N.am   29  ASP29      -0.1957
     38  CA         9.6970   32.2220    5.2500 C.3    29  ASP29       0.1840
     39  C          9.7920   32.8420    6.6300 C.2    29  ASP29       0.2622
     40  O          9.8920   34.0610    6.8170 O.2    29  ASP29      -0.2715
     41  CB         8.2300   32.0740    4.9070 C.3    29  ASP29       0.1450
     42  CG         7.8870   31.5620    3.4920 C.2    29  ASP29       0.3671
     43  OD1        8.7200   31.4410    2.5570 O.co2  29  ASP29      -0.2456
     44  OD2        6.6940   31.2580    3.2960 O.co2  29  ASP29      -0.2456
     45  N          9.7750   31.9830    7.6150 N.am   30  ASP30      -0.1971
     46  CA         9.7210   32.4000    9.0270 C.3    30  ASP30       0.1709
     47  C         10.9310   31.9350    9.8290 C.2    30  ASP30       0.2293
     48  O         11.3900   30.8270    9.5570 O.2    30  ASP30      -0.2864
     49  CB         8.5040   31.6740    9.6310 C.3    30  ASP30       0.1436
     50  CG         7.1590   32.2810    9.1820 C.2    30  ASP30       0.3671
     51  OD1        7.0470   33.5300    9.1810 O.co2  30  ASP30      -0.2456
     52  OD2        6.2050   31.5450    8.8290 O.co2  30  ASP30      -0.2456
     53  N         12.2260   30.1370   12.9770 N.3    32  VAL32      -0.1245
     54  CA        11.7590   29.1490   13.9570 C.3    32  VAL32       0.1561
     55  C         12.9490   28.7440   14.7880 C.2    32  VAL32       0.2260
     56  O         13.9460   28.2480   14.2610 O.2    32  VAL32      -0.2867
     57  CB        11.3100   27.8910   13.2420 C.3    32  VAL32       0.0252
     58  CG1       10.6820   26.9200   14.2270 C.3    32  VAL32       0.0019
     59  CG2       10.4350   28.1690   12.0130 C.3    32  VAL32       0.0019
     60  N          0.1140   28.5800   16.5020 N.3    45  LYS45      -0.1245
     61  CA         0.2620   28.5670   15.0450 C.3    45  LYS45       0.1561
     62  C          0.8360   27.2130   14.6620 C.2    45  LYS45       0.2260
     63  O          1.4800   26.5730   15.5090 O.2    45  LYS45      -0.2867
     64  CB         1.3520   29.5690   14.7480 C.3    45  LYS45       0.0271
     65  CG         1.0090   30.2980   13.4620 C.3    45  LYS45       0.0035
     66  CD         2.2190   30.7690   12.6450 C.3    45  LYS45       0.0206
     67  CE         1.7210   31.6770   11.5260 C.3    45  LYS45       0.1093
     68  NZ         2.8110   32.0740   10.6240 N.3    45  LYS45      -0.1314
     69  N          2.9720   25.5980   11.4040 N.3    47  ILE47      -0.1231
     70  CA         3.6980   25.8120   10.1480 C.3    47  ILE47       0.1692
     71  C          4.2260   24.4670    9.6990 C.2    47  ILE47       0.2593
     72  O          4.7670   23.6900   10.5050 O.2    47  ILE47      -0.2718
     73  CB         4.9180   26.6850   10.4210 C.3    47  ILE47       0.0266
     74  CG1        5.9930   25.8490   11.0930 C.3    47  ILE47       0.0019
     75  CG2        4.5850   27.9400   11.2560 C.3    47  ILE47       0.0020
     76  CD1        7.1240   26.7710   11.5530 C.3    47  ILE47       0.0001
     77  N          4.1350   24.2830    8.3930 N.am   48  GLY48      -0.1942
     78  CA         4.6530   23.0800    7.7340 C.3    48  GLY48       0.2014
     79  C          6.0330   23.2620    7.1080 C.2    48  GLY48       0.2639
     80  O          6.5290   24.3750    6.8770 O.2    48  GLY48      -0.2714
     81  N          6.6420   22.1220    6.8490 N.am   49  GLY49      -0.1939
     82  CA         7.9230   22.0300    6.1200 C.3    49  GLY49       0.2014
     83  C          7.9940   20.6380    5.4780 C.2    49  GLY49       0.2638
     84  O          6.9710   19.9790    5.2550 O.2    49  GLY49      -0.2714
     85  N          9.1950   20.2370    5.1490 N.am   50  ILE50      -0.1977
     86  CA         9.4470   18.8780    4.7210 C.3    50  ILE50       0.1596
     87  C          9.2300   18.0810    5.9890 C.2    50  ILE50       0.2287
     88  O          9.7890   18.4810    7.0090 O.2    50  ILE50      -0.2864
     89  CB        10.9100   18.8710    4.3980 C.3    50  ILE50       0.0276
     90  CG1       11.0810   19.7690    3.2030 C.3    50  ILE50       0.0022
     91  CG2       11.4940   17.4700    4.1720 C.3    50  ILE50       0.0022
     92  CD1       12.2680   19.2130    2.4350 C.3    50  ILE50       0.0001
     93  N          3.6860   19.3060    9.4880 N.3    53  PHE53      -0.1241
     94  CA         3.4770   20.5470   10.2710 C.3    53  PHE53       0.1605
     95  C          3.9420   20.4070   11.7120 C.2    53  PHE53       0.2264
     96  O          3.8690   19.2910   12.2430 O.2    53  PHE53      -0.2867
     97  CB         2.0010   20.8800   10.3030 C.3    53  PHE53       0.0534
     98  CG         1.6310   21.4790    8.9840 C.ar   53  PHE53      -0.0203
     99  CD1        1.5110   20.6670    7.8740 C.ar   53  PHE53      -0.0042
    100  CD2        1.4230   22.8470    8.9180 C.ar   53  PHE53      -0.0042
    101  CE1        1.2530   21.2660    6.6510 C.ar   53  PHE53      -0.0003
    102  CE2        1.1570   23.4440    7.7060 C.ar   53  PHE53      -0.0003
    103  CZ         1.0860   22.6480    6.5730 C.ar   53  PHE53      -0.0000
    104  N         14.1490   21.1650   14.7920 N.3    81  PRO81      -0.2102
    105  CA        15.3140   20.2900   15.0130 C.3    81  PRO81       0.1504
    106  C         16.5670   21.1520   15.0450 C.2    81  PRO81       0.2575
    107  O         17.5680   20.7740   15.6730 O.2    81  PRO81      -0.2718
    108  CB        15.3240   19.3700   13.8000 C.3    81  PRO81       0.0282
    109  CG        14.7610   20.2470   12.6760 C.3    81  PRO81       0.0208
    110  CD        13.7960   21.2270   13.3590 C.3    81  PRO81       0.0893
    111  N         16.4880   22.2370   14.2850 N.am   82  VAL82      -0.1980
    112  CA        17.5200   23.2880   14.2700 C.3    82  VAL82       0.1595
    113  C         16.7960   24.6180   14.2770 C.2    82  VAL82       0.2287
    114  O         15.6040   24.6510   13.9210 O.2    82  VAL82      -0.2864
    115  CB        18.5010   23.2500   13.1000 C.3    82  VAL82       0.0276
    116  CG1       17.8220   23.3250   11.7450 C.3    82  VAL82       0.0022
    117  CG2       19.5020   24.3880   13.2180 C.3    82  VAL82       0.0022
    118  N         16.3370   28.2320   12.9850 N.3    84  ILE84      -0.1245
    119  CA        16.3500   28.5530   11.5740 C.3    84  ILE84       0.1561
    120  C         15.9680   30.0150   11.5010 C.2    84  ILE84       0.2260
    121  O         14.9460   30.4300   12.0500 O.2    84  ILE84      -0.2867
    122  CB        15.3510   27.6580   10.8410 C.3    84  ILE84       0.0252
    123  CG1       15.8460   26.2600   10.5940 C.3    84  ILE84       0.0019
    124  CG2       14.7640   28.2390    9.5660 C.3    84  ILE84       0.0019
    125  CD1       14.6150   25.4320   10.2500 C.3    84  ILE84       0.0001
@<TRIPOS>BOND
     1    29    28    1
     2    29    30    1
     3    92    90    1
     4    43    42   ar
     5    31    30    2
     6    30    32   am
     7    90    89    1
     8    44    42   ar
     9    42    41    1
    10    32    33    1
    11    91    89    1
    12    26    25   ar
    13    89    86    1
    14    22    23    2
    15    22    21    1
    16    86    85    1
    17    86    87    1
    18    41    38    1
    19    85    83   am
    20    33    34    1
    21    33    36    1
    22    34    37   am
    23    34    35    2
    24    38    37    1
    25    38    39    1
    26    84    83    2
    27    21    20    1
    28    21    24    1
    29    83    82    1
    30    25    27   ar
    31    25    24    1
    32     1     2    1
    33    87    88    2
    34    82    81    1
    35     2     3    1
    36     2     5    1
    37   103   101   ar
    38   103   102   ar
    39    39    40    2
    40    39    45   am
    41   101    99   ar
    42     3     4    2
    43    81    79   am
    44    80    79    2
    45    79    78    1
    46     6     5    1
    47     6     7    1
    48    45    46    1
    49   102   100   ar
    50    78    77    1
    51     7     8    1
    52    18    17    1
    53    99    98   ar
    54    19    17    1
    55    17    16    1
    56    77    71   am
    57     8     9    2
    58    10     9    1
    59    52    50   ar
    60   100    98   ar
    61    98    97    1
    62    46    49    1
    63    46    47    1
    64     9    11    1
    65    51    50   ar
    66    50    49    1
    67    14    15    1
    68    14    13    1
    69    93    94    1
    70    48    47    2
    71   124   122    1
    72    71    70    1
    73    71    72    2
    74    16    13    1
    75    13    12    1
    76    70    73    1
    77    70    69    1
    78   125   123    1
    79    94    97    1
    80    94    95    1
    81    73    74    1
    82    73    75    1
    83   123   122    1
    84    68    67    1
    85   122   119    1
    86    74    76    1
    87   120   119    1
    88   120   121    2
    89    67    66    1
    90   119   118    1
    91    95    96    2
    92   116   115    1
    93    59    57    1
    94    66    65    1
    95   109   110    1
    96   109   108    1
    97    53    54    1
    98   115   117    1
    99   115   112    1
   100    57    54    1
   101    57    58    1
   102   110   104    1
   103    65    64    1
   104   108   105    1
   105   114   113    2
   106    54    55    1
   107    56    55    2
   108   112   113    1
   109   112   111    1
   110   111   106   am
   111    62    61    1
   112    62    63    2
   113    64    61    1
   114   104   105    1
   115   105   106    1
   116   106   107    2
   117    61    60    1
