@<TRIPOS>MOLECULE
tmp/2usnA00.pdb
 151 154 0 0 0
SMALL
GASTEIGER

@<TRIPOS>ATOM
      1  N         26.2460   41.5110   56.6460 N.3     4  PHE4       -0.1228
      2  CA        25.0540   41.6610   55.7530 C.3     4  PHE4        0.1721
      3  C         23.8880   41.1070   56.5830 C.2     4  PHE4        0.2437
      4  O         24.1400   40.3550   57.5410 O.2     4  PHE4       -0.2733
      5  CB        25.2750   40.9660   54.4400 C.3     4  PHE4        0.0547
      6  CG        26.3430   41.5850   53.5900 C.ar    4  PHE4       -0.0202
      7  CD1       26.0230   42.7500   52.8730 C.ar    4  PHE4       -0.0042
      8  CD2       27.5850   41.0090   53.4500 C.ar    4  PHE4       -0.0042
      9  CE1       26.9530   43.3370   52.0310 C.ar    4  PHE4       -0.0003
     10  CE2       28.5310   41.5790   52.5940 C.ar    4  PHE4       -0.0003
     11  CZ        28.1830   42.7300   51.8600 C.ar    4  PHE4       -0.0000
     12  N         22.6830   41.4380   56.1700 N.am    5  PRO5       -0.2729
     13  CA        21.4650   40.9650   56.8170 C.3     5  PRO5        0.1401
     14  C         21.2320   39.4780   56.5790 C.2     5  PRO5        0.2269
     15  O         21.3590   38.9110   55.4710 O.2     5  PRO5       -0.2865
     16  CB        20.3670   41.8490   56.2500 C.3     5  PRO5        0.0296
     17  CG        21.0570   43.0150   55.6160 C.3     5  PRO5        0.0237
     18  CD        22.3660   42.4160   55.0970 C.3     5  PRO5        0.0939
     19  N         24.8120   36.1610   55.9810 N.3     8  PRO8       -0.2116
     20  CA        25.4070   35.1440   55.0750 C.3     8  PRO8        0.1372
     21  C         26.8460   34.8870   55.5010 C.2     8  PRO8        0.2244
     22  O         27.6260   35.7120   56.0290 O.2     8  PRO8       -0.2868
     23  CB        25.2290   35.7750   53.7110 C.3     8  PRO8        0.0268
     24  CG        25.1210   37.2500   53.9320 C.3     8  PRO8        0.0207
     25  CD        24.3690   37.3720   55.2670 C.3     8  PRO8        0.0892
     26  N         24.4800   45.3330   37.9760 N.3    73  TYR73      -0.1241
     27  CA        25.1650   46.5690   38.4520 C.3    73  TYR73       0.1605
     28  C         26.3110   46.9960   37.5750 C.2    73  TYR73       0.2264
     29  O         27.5050   46.8170   37.8940 O.2    73  TYR73      -0.2867
     30  CB        25.6010   46.2340   39.8920 C.3    73  TYR73       0.0534
     31  CG        24.4160   45.7780   40.7240 C.ar   73  TYR73      -0.0201
     32  CD1       23.5410   46.7060   41.2780 C.ar   73  TYR73      -0.0009
     33  CD2       24.2040   44.4260   40.9770 C.ar   73  TYR73      -0.0009
     34  CE1       22.4650   46.3100   42.0760 C.ar   73  TYR73       0.0417
     35  CE2       23.1490   44.0090   41.7800 C.ar   73  TYR73       0.0417
     36  CZ        22.3200   44.9590   42.3740 C.ar   73  TYR73       0.1957
     37  OH        21.3010   44.5050   43.1610 O.3    73  TYR73      -0.2866
     38  N         34.6410   49.3700   42.5220 N.3    83  ALA83      -0.1231
     39  CA        34.4790   47.8990   42.5400 C.3    83  ALA83       0.1694
     40  C         33.2520   47.4490   43.2920 C.2    83  ALA83       0.2592
     41  O         32.6150   48.2300   44.0300 O.2    83  ALA83      -0.2718
     42  CB        35.7570   47.3070   43.0800 C.3    83  ALA83       0.0304
     43  N         32.8920   46.1690   43.0900 N.am   84  HIS84      -0.1962
     44  CA        31.7860   45.5760   43.8400 C.3    84  HIS84       0.1787
     45  C         31.9860   44.0760   44.0140 C.2    84  HIS84       0.2620
     46  O         32.6490   43.3460   43.2090 O.2    84  HIS84      -0.2715
     47  CB        30.3370   45.9230   43.5350 C.3    84  HIS84       0.0785
     48  CG        29.8950   45.6200   42.1350 C.ar   84  HIS84       0.0821
     49  ND1       29.2180   46.5380   41.3470 N.ar   84  HIS84      -0.2267
     50  CD2       30.1790   44.5620   41.3260 C.ar   84  HIS84       0.1154
     51  CE1       28.9920   45.9940   40.1670 C.ar   84  HIS84       0.1986
     52  NE2       29.5130   44.7990   40.1240 N.ar   84  HIS84      -0.2212
     53  N         31.4530   43.6410   45.1400 N.am   85  ALA85      -0.1963
     54  CA        31.5130   42.2630   45.6050 C.3    85  ALA85       0.1728
     55  C         30.2610   41.7990   46.2820 C.2    85  ALA85       0.2616
     56  O         29.5030   42.6040   46.8820 O.2    85  ALA85      -0.2715
     57  CB        32.7630   42.1420   46.4720 C.3    85  ALA85       0.0334
     58  N         30.0360   40.4820   46.1670 N.am   86  TYR86      -0.1960
     59  CA        28.8760   39.8040   46.7300 C.3    86  TYR86       0.1771
     60  C         29.1440   39.0030   47.9930 C.2    86  TYR86       0.2619
     61  O         30.0990   38.2120   48.0790 O.2    86  TYR86      -0.2715
     62  CB        28.3340   38.8070   45.6350 C.3    86  TYR86       0.0574
     63  CG        27.9000   39.6100   44.4240 C.ar   86  TYR86      -0.0198
     64  CD1       28.8320   40.0320   43.4790 C.ar   86  TYR86      -0.0009
     65  CD2       26.5560   39.9720   44.2910 C.ar   86  TYR86      -0.0009
     66  CE1       28.4260   40.8400   42.4160 C.ar   86  TYR86       0.0417
     67  CE2       26.1610   40.7990   43.2320 C.ar   86  TYR86       0.0417
     68  CZ        27.0810   41.1610   42.2690 C.ar   86  TYR86       0.1957
     69  OH        26.6460   41.9670   41.2390 O.3    86  TYR86      -0.2866
     70  N         28.1520   39.0070   48.8740 N.am   87  ALA87      -0.1964
     71  CA        28.2540   38.2280   50.1510 C.3    87  ALA87       0.1713
     72  C         28.4720   36.7640   49.8190 C.2    87  ALA87       0.2458
     73  O         28.3590   36.3360   48.6540 O.2    87  ALA87      -0.2730
     74  CB        27.0370   38.5450   50.9890 C.3    87  ALA87       0.0333
     75  N         28.8760   35.9810   50.8190 N.am   88  PRO88      -0.2727
     76  CA        29.1730   34.5540   50.6410 C.3    88  PRO88       0.1402
     77  C         27.9580   33.8440   50.0680 C.2    88  PRO88       0.2269
     78  O         26.8230   34.2030   50.4080 O.2    88  PRO88      -0.2865
     79  CB        29.5510   34.0750   52.0450 C.3    88  PRO88       0.0296
     80  CG        29.9980   35.3150   52.7560 C.3    88  PRO88       0.0237
     81  CD        29.1200   36.4320   52.2070 C.3    88  PRO88       0.0939
     82  N         27.6640   34.8690   44.1670 N.3    93  ASN93      -0.1240
     83  CA        27.9640   35.2740   45.5680 C.3    93  ASN93       0.1653
     84  C         29.4680   35.0160   45.7730 C.2    93  ASN93       0.2266
     85  O         29.9890   34.1180   45.1280 O.2    93  ASN93      -0.2867
     86  CB        27.0730   34.5510   46.5750 C.3    93  ASN93       0.1155
     87  CG        25.6100   34.9910   46.4500 C.2    93  ASN93       0.2627
     88  OD1       24.8300   34.1910   45.9360 O.2    93  ASN93      -0.2716
     89  ND2       25.2660   36.2370   46.7460 N.am   93  ASN93      -0.0877
     90  N         39.5470   45.4040   50.8810 N.3   119  HIS119     -0.1226
     91  CA        38.1920   45.8300   51.2570 C.3   119  HIS119      0.1752
     92  C         37.0860   45.0180   50.6200 C.2   119  HIS119      0.2595
     93  O         36.1160   44.5280   51.2850 O.2   119  HIS119     -0.2718
     94  CB        37.9800   47.3450   50.9830 C.3   119  HIS119      0.0759
     95  CG        36.6090   47.8590   51.2230 C.ar  119  HIS119      0.0818
     96  ND1       36.2030   48.5310   52.3440 N.ar  119  HIS119     -0.2268
     97  CD2       35.5150   47.8220   50.4160 C.ar  119  HIS119      0.1154
     98  CE1       34.9240   48.8100   52.2770 C.ar  119  HIS119      0.1986
     99  NE2       34.4520   48.3840   51.1080 N.ar  119  HIS119     -0.2212
    100  N         37.1620   44.7640   49.3240 N.am  120  GLU120     -0.1979
    101  CA        36.2000   43.9740   48.5820 C.3   120  GLU120      0.1602
    102  C         36.1200   42.5540   49.1180 C.2   120  GLU120      0.2287
    103  O         34.9640   42.0600   49.2230 O.2   120  GLU120     -0.2864
    104  CB        36.4010   44.0140   47.0640 C.3   120  GLU120      0.0415
    105  CG        36.1480   45.3890   46.4300 C.3   120  GLU120      0.1163
    106  CD        34.7880   45.9630   46.6960 C.2   120  GLU120      0.3649
    107  OE1       33.7770   45.3250   46.8880 O.co2 120  GLU120     -0.2457
    108  OE2       34.7240   47.2120   46.6940 O.co2 120  GLU120     -0.2457
    109  N         33.9540   42.0500   51.9910 N.3   123  HIS123     -0.1241
    110  CA        32.5320   41.8640   51.6260 C.3   123  HIS123      0.1621
    111  C         32.2790   40.4260   51.1830 C.2   123  HIS123      0.2264
    112  O         31.1730   39.9230   51.4930 O.2   123  HIS123     -0.2867
    113  CB        31.9070   42.7800   50.5790 C.3   123  HIS123      0.0745
    114  CG        31.9370   44.2370   50.9770 C.ar  123  HIS123      0.0817
    115  ND1       31.1650   44.7670   51.9700 N.ar  123  HIS123     -0.2268
    116  CD2       32.5790   45.2620   50.3640 C.ar  123  HIS123      0.1154
    117  CE1       31.4020   46.0710   51.9970 C.ar  123  HIS123      0.1986
    118  NE2       32.1920   46.4110   50.9820 N.ar  123  HIS123     -0.2212
    119  N         29.9180   43.9170   56.1900 N.3   128  PHE128     -0.1227
    120  CA        29.3670   45.1110   55.4970 C.3   128  PHE128      0.1736
    121  C         30.1640   46.3110   55.9560 C.2   128  PHE128      0.2595
    122  O         31.3250   46.1410   56.3800 O.2   128  PHE128     -0.2718
    123  CB        27.8600   45.1960   55.5420 C.3   128  PHE128      0.0547
    124  CG        27.2860   46.2500   54.6710 C.ar  128  PHE128     -0.0202
    125  CD1       27.4240   46.1170   53.2840 C.ar  128  PHE128     -0.0042
    126  CD2       26.6520   47.3760   55.2050 C.ar  128  PHE128     -0.0042
    127  CE1       26.9340   47.1030   52.4260 C.ar  128  PHE128     -0.0003
    128  CE2       26.1130   48.3490   54.3440 C.ar  128  PHE128     -0.0003
    129  CZ        26.3060   48.2300   52.9550 C.ar  128  PHE128     -0.0000
    130  N         29.6760   47.5180   55.7850 N.am  129  HIS129     -0.1975
    131  CA        30.3930   48.7350   56.1480 C.3   129  HIS129      0.1656
    132  C         30.3260   49.0450   57.6420 C.2   129  HIS129      0.2291
    133  O         29.3230   48.8630   58.3340 O.2   129  HIS129     -0.2864
    134  CB        30.1350   49.9940   55.3220 C.3   129  HIS129      0.0771
    135  CG        30.4870   49.8930   53.8760 C.ar  129  HIS129      0.0820
    136  ND1       29.6440   50.2760   52.8270 N.ar  129  HIS129     -0.2267
    137  CD2       31.6170   49.4420   53.2700 C.ar  129  HIS129      0.1154
    138  CE1       30.2950   50.1300   51.7110 C.ar  129  HIS129      0.1986
    139  NE2       31.4670   49.6180   51.9150 N.ar  129  HIS129     -0.2212
    140  N         37.7770   54.1960   53.3840 N.3   141  TYR141     -0.1241
    141  CA        39.0880   53.5550   53.6390 C.3   141  TYR141      0.1605
    142  C         40.0640   53.8990   52.5180 C.2   141  TYR141      0.2264
    143  O         41.2880   54.0600   52.7450 O.2   141  TYR141     -0.2867
    144  CB        38.8890   52.0120   53.7670 C.3   141  TYR141      0.0534
    145  CG        38.5530   51.4350   52.3970 C.ar  141  TYR141     -0.0201
    146  CD1       37.3200   51.5990   51.7930 C.ar  141  TYR141     -0.0009
    147  CD2       39.5990   50.9450   51.6240 C.ar  141  TYR141     -0.0009
    148  CE1       37.0760   51.1430   50.4920 C.ar  141  TYR141      0.0417
    149  CE2       39.3560   50.4230   50.3520 C.ar  141  TYR141      0.0417
    150  CZ        38.1110   50.5980   49.7720 C.ar  141  TYR141      0.1957
    151  OH        37.9310   50.2650   48.4490 O.3   141  TYR141     -0.2866
@<TRIPOS>BOND
     1    28    29    2
     2    28    27    1
     3    26    27    1
     4    27    30    1
     5    30    31    1
     6    52    51   ar
     7    52    50   ar
     8    51    49   ar
     9    31    33   ar
    10    31    32   ar
    11    33    35   ar
    12    69    68    1
    13    32    34   ar
    14    50    48   ar
    15    49    48   ar
    16    35    36   ar
    17    34    36   ar
    18    48    47    1
    19    68    66   ar
    20    68    67   ar
    21    36    37    1
    22    66    64   ar
    23    38    39    1
    24    39    42    1
    25    39    40    1
    26    43    40   am
    27    43    44    1
    28    46    45    2
    29    67    65   ar
    30    40    41    2
    31    64    63   ar
    32    47    44    1
    33    44    45    1
    34    45    53   am
    35    82    83    1
    36    65    63   ar
    37    63    62    1
    38    85    84    2
    39    53    54    1
    40    83    84    1
    41    83    86    1
    42    54    55    1
    43    54    57    1
    44    62    59    1
    45    88    87    2
    46    58    55   am
    47    58    59    1
    48    55    56    2
    49   105   106    1
    50   105   104    1
    51    87    86    1
    52    87    89   am
    53   108   106   ar
    54   106   107   ar
    55    59    60    1
    56   104   101    1
    57    60    61    2
    58    60    70   am
    59   151   150    1
    60   101   102    1
    61   101   100    1
    62    73    72    2
    63    70    71    1
    64   102   103    2
    65   100    92   am
    66   150   149   ar
    67   150   148   ar
    68    72    71    1
    69    72    75   am
    70    77    78    2
    71    77    76    1
    72    71    74    1
    73   149   147   ar
    74   116   114   ar
    75   116   118   ar
    76    97    99   ar
    77    97    95   ar
    78   148   146   ar
    79   113   114    1
    80   113   110    1
    81    92    91    1
    82    92    93    2
    83    76    75    1
    84    76    79    1
    85    75    81    1
    86    90    91    1
    87   114   115   ar
    88   118   117   ar
    89    94    95    1
    90    94    91    1
    91    99    98   ar
    92   111   112    2
    93   111   110    1
    94    95    96   ar
    95   147   145   ar
    96   110   109    1
    97   138   139   ar
    98   138   136   ar
    99   146   145   ar
   100    11     9   ar
   101    11    10   ar
   102   139   137   ar
   103   115   117   ar
   104     9     7   ar
   105    79    80    1
   106    81    80    1
   107    98    96   ar
   108   145   144    1
   109   127   129   ar
   110   127   125   ar
   111   142   143    2
   112   142   141    1
   113    10     8   ar
   114   136   135   ar
   115     7     6   ar
   116   129   128   ar
   117   137   135   ar
   118   125   124   ar
   119   140   141    1
   120     8     6   ar
   121     6     5    1
   122   141   144    1
   123    23    24    1
   124    23    20    1
   125   135   134    1
   126    24    25    1
   127   128   126   ar
   128     5     2    1
   129   124   126   ar
   130   124   123    1
   131    20    21    1
   132    20    19    1
   133    18    17    1
   134    18    12    1
   135    25    19    1
   136   134   131    1
   137    15    14    2
   138   120   123    1
   139   120   121    1
   140   120   119    1
   141    21    22    2
   142    17    16    1
   143     2     3    1
   144     2     1    1
   145   130   121   am
   146   130   131    1
   147   121   122    2
   148   131   132    1
   149    12     3   am
   150    12    13    1
   151    16    13    1
   152    14    13    1
   153     3     4    2
   154   132   133    2
