@<TRIPOS>MOLECULE
tmp/2uudA00.pdb
 99 102 0 0 0
SMALL
GASTEIGER

@<TRIPOS>ATOM
      1  N         59.1120   14.2460  -10.3710 N.3    31  ASP31      -0.1225
      2  CA        59.7820   14.4000   -9.0860 C.3    31  ASP31       0.1805
      3  C         59.2310   13.5220   -7.9620 C.2    31  ASP31       0.2598
      4  O         59.2770   13.9190   -6.8010 O.2    31  ASP31      -0.2718
      5  CB        59.6900   15.8560   -8.6360 C.3    31  ASP31       0.1424
      6  CG        60.5070   16.7900   -9.4990 C.2    31  ASP31       0.3668
      7  OD1       60.4780   18.0030   -9.2360 O.co2  31  ASP31      -0.2456
      8  OD2       61.1870   16.3240  -10.4360 O.co2  31  ASP31      -0.2456
      9  N         58.7260   12.3350   -8.2740 N.am   32  TYR32      -0.1962
     10  CA        58.1670   11.5010   -7.2190 C.3    32  TYR32       0.1771
     11  C         58.3440   10.0000   -7.3960 C.2    32  TYR32       0.2619
     12  O         58.3300    9.4840   -8.5130 O.2    32  TYR32      -0.2715
     13  CB        56.6690   11.7880   -7.0590 C.3    32  TYR32       0.0574
     14  CG        56.3220   13.1910   -6.5980 C.ar   32  TYR32      -0.0198
     15  CD1       56.3450   14.2650   -7.4820 C.ar   32  TYR32      -0.0009
     16  CD2       55.9460   13.4390   -5.2790 C.ar   32  TYR32      -0.0009
     17  CE1       55.9970   15.5510   -7.0620 C.ar   32  TYR32       0.0417
     18  CE2       55.5960   14.7110   -4.8560 C.ar   32  TYR32       0.0417
     19  CZ        55.6200   15.7620   -5.7530 C.ar   32  TYR32       0.1957
     20  OH        55.2310   17.0180   -5.3580 O.3    32  TYR32      -0.2866
     21  N         58.5020    9.3100   -6.2710 N.am   33  TYR33      -0.1974
     22  CA        58.6450    7.8590   -6.2430 C.3    33  TYR33       0.1639
     23  C         57.2580    7.2780   -6.5300 C.2    33  TYR33       0.2290
     24  O         56.2570    7.8040   -6.0400 O.2    33  TYR33      -0.2864
     25  CB        59.0710    7.4010   -4.8470 C.3    33  TYR33       0.0560
     26  CG        60.5290    7.5660   -4.4610 C.ar   33  TYR33      -0.0198
     27  CD1       61.2680    8.6780   -4.8510 C.ar   33  TYR33      -0.0009
     28  CD2       61.1260    6.6660   -3.5830 C.ar   33  TYR33      -0.0009
     29  CE1       62.5540    8.8930   -4.3610 C.ar   33  TYR33       0.0417
     30  CE2       62.4040    6.8670   -3.0940 C.ar   33  TYR33       0.0417
     31  CZ        63.1180    7.9810   -3.4780 C.ar   33  TYR33       0.1957
     32  OH        64.3850    8.1890   -2.9700 O.3    33  TYR33      -0.2866
     33  N         62.0780    8.9560   -8.3890 N.3    53  ASN53      -0.1240
     34  CA        62.1010   10.1850   -9.1720 C.3    53  ASN53       0.1653
     35  C         63.4170   10.5430   -9.8870 C.2    53  ASN53       0.2266
     36  O         64.4250    9.8640   -9.7200 O.2    53  ASN53      -0.2867
     37  CB        61.6740   11.3370   -8.2750 C.3    53  ASN53       0.1155
     38  CG        62.5820   11.5120   -7.0710 C.2    53  ASN53       0.2627
     39  OD1       62.1860   12.1010   -6.0730 O.2    53  ASN53      -0.2716
     40  ND2       63.8090   11.0150   -7.1690 N.am   53  ASN53      -0.0877
     41  N         55.1650    8.4110   -3.5630 N.3   101  GLY101     -0.1210
     42  CA        55.9300    8.8090   -2.3900 C.3   101  GLY101      0.1956
     43  C         55.6300   10.2210   -1.9220 C.2   101  GLY101      0.2612
     44  O         55.0860   11.0170   -2.6790 O.2   101  GLY101     -0.2717
     45  N         55.9800   10.5180   -0.6710 N.am  102  ASP102     -0.1959
     46  CA        55.7590   11.8310   -0.0490 C.3   102  ASP102      0.1840
     47  C         57.1330   12.4870    0.0250 C.2   102  ASP102      0.2622
     48  O         58.1230   11.7840    0.1250 O.2   102  ASP102     -0.2715
     49  CB        55.1390   11.6060    1.3410 C.3   102  ASP102      0.1450
     50  CG        55.0450   12.8720    2.1870 C.2   102  ASP102      0.3671
     51  OD1       54.7470   13.9630    1.6500 O.co2 102  ASP102     -0.2456
     52  OD2       55.2490   12.7540    3.4170 O.co2 102  ASP102     -0.2456
     53  N         57.2150   13.8140   -0.0310 N.am  103  TYR103     -0.1960
     54  CA        58.5310   14.4720   -0.0070 C.3   103  TYR103      0.1771
     55  C         59.4500   14.0670    1.1440 C.2   103  TYR103      0.2620
     56  O         60.6340   14.4100    1.1490 O.2   103  TYR103     -0.2715
     57  CB        58.3890   16.0100   -0.0750 C.3   103  TYR103      0.0574
     58  CG        58.1180   16.7610    1.2170 C.ar  103  TYR103     -0.0198
     59  CD1       57.3320   16.2130    2.2320 C.ar  103  TYR103     -0.0009
     60  CD2       58.5820   18.0700    1.3800 C.ar  103  TYR103     -0.0009
     61  CE1       57.0130   16.9540    3.3750 C.ar  103  TYR103      0.0417
     62  CE2       58.2620   18.8170    2.5150 C.ar  103  TYR103      0.0417
     63  CZ        57.4800   18.2530    3.5030 C.ar  103  TYR103      0.1957
     64  OH        57.1710   18.9880    4.6200 O.3   103  TYR103     -0.2866
     65  N         58.9000   13.3290    2.1050 N.am  104  TYR104     -0.1960
     66  CA        59.6650   12.8340    3.2440 C.3   104  TYR104      0.1771
     67  C         59.6370   11.3050    3.2930 C.2   104  TYR104      0.2620
     68  O         59.1720   10.6440    2.3640 O.2   104  TYR104     -0.2715
     69  CB        59.1120   13.3960    4.5500 C.3   104  TYR104      0.0574
     70  CG        59.3740   14.8680    4.7550 C.ar  104  TYR104     -0.0198
     71  CD1       60.2330   15.5780    3.9110 C.ar  104  TYR104     -0.0009
     72  CD2       58.7990   15.5460    5.8250 C.ar  104  TYR104     -0.0009
     73  CE1       60.5110   16.9390    4.1350 C.ar  104  TYR104      0.0417
     74  CE2       59.0740   16.8970    6.0630 C.ar  104  TYR104      0.0417
     75  CZ        59.9250   17.5880    5.2190 C.ar  104  TYR104      0.1957
     76  OH        60.1660   18.9240    5.4630 O.3   104  TYR104     -0.2866
     77  N         60.1260   10.7480    4.3900 N.am  105  GLY105     -0.1940
     78  CA        60.1660    9.3040    4.5270 C.3   105  GLY105      0.2014
     79  C         58.8420    8.5800    4.4130 C.2   105  GLY105      0.2639
     80  O         58.3920    7.9460    5.3790 O.2   105  GLY105     -0.2714
     81  N         58.2280    8.6580    3.2330 N.am  106  ALA106     -0.1963
     82  CA        56.9510    7.9960    2.9840 C.3   106  ALA106      0.1728
     83  C         56.8240    7.5210    1.5300 C.2   106  ALA106      0.2616
     84  O         56.9180    8.3190    0.5880 O.2   106  ALA106     -0.2715
     85  CB        55.8110    8.9350    3.3400 C.3   106  ALA106      0.0334
     86  N         56.6020    6.2200    1.3520 N.am  107  TRP107     -0.1974
     87  CA        56.4700    5.6420    0.0220 C.3   107  TRP107      0.1640
     88  C         55.0890    5.7870   -0.6000 C.2   107  TRP107      0.2290
     89  O         54.9700    6.1420   -1.7850 O.2   107  TRP107     -0.2864
     90  CB        56.8540    4.1580    0.0400 C.3   107  TRP107      0.0576
     91  CG        58.2750    3.9190    0.4550 C.ar  107  TRP107      0.0006
     92  CD1       58.7600    3.8370    1.7330 C.ar  107  TRP107      0.0946
     93  CD2       59.4060    3.7780   -0.4080 C.ar  107  TRP107      0.0152
     94  NE1       60.1190    3.6560    1.7170 N.ar  107  TRP107     -0.2442
     95  CE2       60.5430    3.6170    0.4160 C.ar  107  TRP107      0.0810
     96  CE3       59.5720    3.7750   -1.7980 C.ar  107  TRP107      0.0012
     97  CZ2       61.8310    3.4560   -0.1070 C.ar  107  TRP107      0.0191
     98  CZ3       60.8510    3.6160   -2.3190 C.ar  107  TRP107      0.0001
     99  CH2       61.9640    3.4600   -1.4740 C.ar  107  TRP107      0.0015
@<TRIPOS>BOND
     1     8     6   ar
     2     1     2    1
     3    35    36    2
     4    35    34    1
     5     6     7   ar
     6     6     5    1
     7    34    33    1
     8    34    37    1
     9     2     5    1
    10     2     3    1
    11    12    11    2
    12    37    38    1
    13     9     3   am
    14     9    10    1
    15     3     4    2
    16    15    17   ar
    17    15    14   ar
    18    11    10    1
    19    11    21   am
    20    10    13    1
    21    40    38   am
    22    38    39    2
    23    17    19   ar
    24    13    14    1
    25    14    16   ar
    26    23    22    1
    27    23    24    2
    28    21    22    1
    29    22    25    1
    30    19    20    1
    31    19    18   ar
    32    16    18   ar
    33    27    26   ar
    34    27    29   ar
    35    25    26    1
    36    26    28   ar
    37    29    31   ar
    38    28    30   ar
    39    41    42    1
    40    31    30   ar
    41    31    32    1
    42    44    43    2
    43    42    43    1
    44    98    96   ar
    45    98    99   ar
    46    43    45   am
    47    96    93   ar
    48    89    88    2
    49    99    97   ar
    50    45    46    1
    51    88    87    1
    52    93    95   ar
    53    93    91   ar
    54    97    95   ar
    55    57    54    1
    56    57    58    1
    57    46    47    1
    58    46    49    1
    59    53    54    1
    60    53    47   am
    61    54    55    1
    62    87    90    1
    63    87    86    1
    64    47    48    2
    65    90    91    1
    66    95    94   ar
    67    91    92   ar
    68    84    83    2
    69    55    56    2
    70    55    65   am
    71    58    60   ar
    72    58    59   ar
    73    49    50    1
    74    86    83   am
    75    60    62   ar
    76    83    82    1
    77    51    50   ar
    78    94    92   ar
    79    65    66    1
    80    50    52   ar
    81    59    61   ar
    82    68    67    2
    83    62    63   ar
    84    82    81    1
    85    82    85    1
    86    81    79   am
    87    66    67    1
    88    66    69    1
    89    67    77   am
    90    61    63   ar
    91    63    64    1
    92    71    73   ar
    93    71    70   ar
    94    73    75   ar
    95    77    78    1
    96    79    78    1
    97    79    80    2
    98    69    70    1
    99    70    72   ar
   100    75    76    1
   101    75    74   ar
   102    72    74   ar
