@<TRIPOS>MOLECULE
tmp/2uueA00.pdb
 167 159 0 0 0
SMALL
GASTEIGER

@<TRIPOS>ATOM
      1  N         -0.3220   45.7880    9.3880 N.3    10  ILE10      -0.1231
      2  CA        -1.0110   46.1040    8.1510 C.3    10  ILE10       0.1696
      3  C         -0.9840   44.9070    7.1950 C.2    10  ILE10       0.2632
      4  O         -2.0410   44.3960    6.8280 O.2    10  ILE10      -0.2714
      5  CB        -0.5470   47.4530    7.5330 C.3    10  ILE10       0.0266
      6  CG1        0.9780   47.5270    7.4580 C.3    10  ILE10       0.0019
      7  CG2       -1.0030   48.6100    8.4020 C.3    10  ILE10       0.0020
      8  CD1        1.5040   48.7300    6.6850 C.3    10  ILE10       0.0001
      9  N          0.1840   44.3260    6.9400 N.am   11  GLY11      -0.1718
     10  CA         0.1590   42.9560    6.4260 C.2    11  GLY11       0.1480
     11  C          1.3890   42.0620    6.3990 C.2    11  GLY11       0.2820
     12  O          2.0600   41.8670    7.4110 O.2    11  GLY11      -0.2669
     13  N          1.5310   41.3720    5.2660 N.am   12  GLU12      -0.1929
     14  CA         2.7770   40.7910    4.7670 C.3    12  GLU12       0.1736
     15  C          2.7430   40.9470    3.2440 C.2    12  GLU12       0.2617
     16  O          1.7410   41.4170    2.6860 O.2    12  GLU12      -0.2715
     17  CB         2.8700   39.3000    5.1250 C.3    12  GLU12       0.0429
     18  CG         1.6630   38.4530    4.7060 C.3    12  GLU12       0.1163
     19  CD         0.4370   38.6670    5.5970 C.2    12  GLU12       0.3649
     20  OE1        0.4860   38.3070    6.7970 O.co2  12  GLU12      -0.2457
     21  OE2       -0.5930   39.1840    5.1010 O.co2  12  GLU12      -0.2457
     22  N          3.8250   40.5450    2.5740 N.am   13  GLY13      -0.1955
     23  CA         3.9610   40.7460    1.1260 C.3    13  GLY13       0.1869
     24  C          4.4450   39.5120    0.3790 C.2    13  GLY13       0.2309
     25  O          3.8420   38.4340    0.4730 O.2    13  GLY13      -0.2863
     26  N          4.2290   43.1970    7.9640 N.3    18  VAL18      -0.1245
     27  CA         4.3190   44.6570    7.8110 C.3    18  VAL18       0.1561
     28  C          3.5560   45.4800    8.8560 C.2    18  VAL18       0.2260
     29  O          2.3230   45.4300    8.9450 O.2    18  VAL18      -0.2867
     30  CB         3.7990   45.0750    6.4380 C.3    18  VAL18       0.0252
     31  CG1        4.3270   46.4630    6.0650 C.3    18  VAL18       0.0019
     32  CG2        4.2200   44.0440    5.4050 C.3    18  VAL18       0.0019
     33  N          6.5310   52.2280    7.9270 N.3    31  ALA31      -0.1245
     34  CA         6.0240   50.8630    7.7450 C.3    31  ALA31       0.1562
     35  C          7.2280   49.9520    7.9170 C.2    31  ALA31       0.2260
     36  O          8.2690   50.1790    7.2910 O.2    31  ALA31      -0.2867
     37  CB         5.4660   50.7370    6.3270 C.3    31  ALA31       0.0290
     38  N          8.8640   46.2680    7.6890 N.3    33  LYS33      -0.1245
     39  CA         8.9360   44.8640    7.2920 C.3    33  LYS33       0.1561
     40  C          9.8520   44.0600    8.2180 C.2    33  LYS33       0.2260
     41  O         11.0340   44.3410    8.3680 O.2    33  LYS33      -0.2867
     42  CB         9.4490   44.7740    5.8580 C.3    33  LYS33       0.0271
     43  CG         8.6990   43.8490    4.9100 C.3    33  LYS33       0.0035
     44  CD         8.7280   44.4360    3.4890 C.3    33  LYS33       0.0206
     45  CE         8.5800   43.3940    2.3820 C.3    33  LYS33       0.1093
     46  NZ         8.2190   44.0180    1.0620 N.3    33  LYS33      -0.1314
     47  N         15.4050   43.4520   -2.8300 N.3    51  GLU51      -0.1245
     48  CA        14.6690   44.6700   -2.4700 C.3    51  GLU51       0.1567
     49  C         15.5970   45.6950   -1.8490 C.2    51  GLU51       0.2260
     50  O         15.5740   46.8890   -2.2030 O.2    51  GLU51      -0.2867
     51  CB        13.4850   44.3900   -1.5260 C.3    51  GLU51       0.0388
     52  CG        12.6700   45.6770   -1.2100 C.3    51  GLU51       0.1160
     53  CD        11.1890   45.4340   -0.8730 C.2    51  GLU51       0.3649
     54  OE1       10.9520   44.5450   -0.0290 O.co2  51  GLU51      -0.2457
     55  OE2       10.2680   46.1220   -1.4210 O.co2  51  GLU51      -0.2457
     56  N          8.7070   53.8430   -3.5230 N.3    64  VAL64      -0.1245
     57  CA         8.7060   53.8030   -2.0780 C.3    64  VAL64       0.1561
     58  C         10.1240   53.9680   -1.4910 C.2    64  VAL64       0.2260
     59  O         11.0850   53.4020   -1.9840 O.2    64  VAL64      -0.2867
     60  CB         8.0090   52.5320   -1.5960 C.3    64  VAL64       0.0252
     61  CG1        8.9100   51.2920   -1.8590 C.3    64  VAL64       0.0019
     62  CG2        7.6150   52.6810   -0.1190 C.3    64  VAL64       0.0019
     63  N         10.4690   51.6680    5.8540 N.3    80  PHE80      -0.1227
     64  CA        10.0360   52.3030    4.6110 C.3    80  PHE80       0.1736
     65  C          9.1910   53.4950    5.0470 C.2    80  PHE80       0.2595
     66  O          8.5690   53.4590    6.1060 O.2    80  PHE80      -0.2718
     67  CB         9.0750   51.3720    3.8690 C.3    80  PHE80       0.0547
     68  CG         9.7290   50.1210    3.3170 C.ar   80  PHE80      -0.0202
     69  CD1        9.6630   48.9230    4.0220 C.ar   80  PHE80      -0.0042
     70  CD2       10.3870   50.1450    2.0910 C.ar   80  PHE80      -0.0042
     71  CE1       10.2500   47.7790    3.5200 C.ar   80  PHE80      -0.0003
     72  CE2       10.9380   49.0140    1.5620 C.ar   80  PHE80      -0.0003
     73  CZ        10.9080   47.8270    2.3030 C.ar   80  PHE80      -0.0000
     74  N          9.1210   54.5230    4.2190 N.am   81  GLU81      -0.1965
     75  CA         8.0890   55.5390    4.3810 C.3    81  GLU81       0.1733
     76  C          6.7260   54.8690    4.3890 C.2    81  GLU81       0.2616
     77  O          6.5160   53.8450    3.7380 O.2    81  GLU81      -0.2715
     78  CB         8.1650   56.5910    3.2640 C.3    81  GLU81       0.0429
     79  CG         7.8200   56.0470    1.8890 C.3    81  GLU81       0.1163
     80  CD         7.6820   57.1050    0.7920 C.2    81  GLU81       0.3649
     81  OE1        8.0520   56.7800   -0.3520 O.co2  81  GLU81      -0.2457
     82  OE2        7.1350   58.2080    1.0400 O.co2  81  GLU81      -0.2457
     83  N          5.8030   55.4220    5.1630 N.am   82  PHE82      -0.1960
     84  CA         4.4970   54.8280    5.3170 C.3    82  PHE82       0.1771
     85  C          3.5580   55.3980    4.2650 C.2    82  PHE82       0.2619
     86  O          3.4600   56.6130    4.1030 O.2    82  PHE82      -0.2715
     87  CB         3.9190   55.2150    6.6730 C.3    82  PHE82       0.0574
     88  CG         2.5020   54.7610    6.8580 C.ar   82  PHE82      -0.0200
     89  CD1        1.4630   55.6710    6.8140 C.ar   82  PHE82      -0.0042
     90  CD2        2.2120   53.4060    7.0180 C.ar   82  PHE82      -0.0042
     91  CE1        0.1550   55.2430    6.9740 C.ar   82  PHE82      -0.0003
     92  CE2        0.9120   52.9690    7.1580 C.ar   82  PHE82      -0.0003
     93  CZ        -0.1150   53.8970    7.1880 C.ar   82  PHE82      -0.0000
     94  N          2.8180   54.5120    3.6130 N.am   83  LEU83      -0.1963
     95  CA         1.8130   54.8990    2.6350 C.3    83  LEU83       0.1728
     96  C          0.5410   54.1220    2.9410 C.2    83  LEU83       0.2616
     97  O          0.5880   52.9290    3.2460 O.2    83  LEU83      -0.2715
     98  CB         2.3000   54.5860    1.2230 C.3    83  LEU83       0.0311
     99  CG         3.4570   55.5120    0.8240 C.3    83  LEU83       0.0022
    100  CD1        4.4920   54.7280    0.1000 C.3    83  LEU83       0.0001
    101  CD2        2.9570   56.6860   -0.0040 C.3    83  LEU83       0.0001
    102  N         -0.5950   54.7990    2.9660 N.am   84  HIS84      -0.1959
    103  CA        -1.6710   54.2370    3.7770 C.3    84  HIS84       0.1787
    104  C         -2.5520   53.2240    3.0390 C.2    84  HIS84       0.2620
    105  O         -3.3540   52.5260    3.6440 O.2    84  HIS84      -0.2715
    106  CB        -2.5180   55.3400    4.3860 C.3    84  HIS84       0.0785
    107  CG        -3.6360   55.7700    3.5000 C.ar   84  HIS84       0.0821
    108  ND1       -3.4250   56.5200    2.3640 N.ar   84  HIS84      -0.2267
    109  CD2       -4.9570   55.4720    3.5240 C.ar   84  HIS84       0.1154
    110  CE1       -4.5820   56.7170    1.7570 C.ar   84  HIS84       0.1986
    111  NE2       -5.5260   56.0840    2.4340 N.ar   84  HIS84      -0.2212
    112  N         -2.4620   53.1440    1.7230 N.am   85  GLN85      -0.1963
    113  CA        -3.0880   51.9890    1.1100 C.3    85  GLN85       0.1733
    114  C         -2.6720   51.6490   -0.2910 C.2    85  GLN85       0.2616
    115  O         -2.0010   52.4420   -0.9360 O.2    85  GLN85      -0.2715
    116  CB        -4.5970   52.0810    1.1820 C.3    85  GLN85       0.0408
    117  CG        -5.1860   53.2160    0.4310 C.3    85  GLN85       0.0908
    118  CD        -6.6790   52.9770    0.2620 C.2    85  GLN85       0.2608
    119  OE1       -7.4820   53.9100    0.2420 O.2    85  GLN85      -0.2717
    120  NE2       -7.0580   51.7080    0.2130 N.am   85  GLN85      -0.0878
    121  N         -3.0310   50.4370   -0.7140 N.am   86  ASP86      -0.1971
    122  CA        -2.6860   49.9860   -2.0480 C.3    86  ASP86       0.1709
    123  C         -3.7660   50.3160   -3.0740 C.2    86  ASP86       0.2293
    124  O         -4.9170   50.5180   -2.7150 O.2    86  ASP86      -0.2864
    125  CB        -2.2580   48.5130   -2.0490 C.3    86  ASP86       0.1436
    126  CG        -3.3820   47.5630   -1.6910 C.2    86  ASP86       0.3671
    127  OD1       -4.3290   47.4280   -2.4910 O.co2  86  ASP86      -0.2456
    128  OD2       -3.2870   46.9040   -0.6320 O.co2  86  ASP86      -0.2456
    129  N         -6.9640   47.8570   -3.0760 N.3    89  LYS89      -0.1245
    130  CA        -7.9700   48.1490   -2.0800 C.3    89  LYS89       0.1561
    131  C         -8.7470   49.4140   -2.4230 C.2    89  LYS89       0.2260
    132  O         -9.9570   49.4680   -2.2670 O.2    89  LYS89      -0.2867
    133  CB        -7.3000   48.2970   -0.7230 C.3    89  LYS89       0.0271
    134  CG        -7.6990   47.2240    0.2740 C.3    89  LYS89       0.0035
    135  CD        -6.7720   46.0260    0.1600 C.3    89  LYS89       0.0206
    136  CE        -7.4260   44.7490    0.6900 C.3    89  LYS89       0.1093
    137  NZ        -6.4300   43.8540    1.3430 N.3    89  LYS89      -0.1314
    138  N         -1.7410   45.6860   -6.0770 N.3   131  GLN131     -0.1245
    139  CA        -1.3920   45.4490   -4.6740 C.3   131  GLN131      0.1566
    140  C          0.0050   45.9800   -4.3380 C.2   131  GLN131      0.2260
    141  O          0.2950   46.3160   -3.1970 O.2   131  GLN131     -0.2867
    142  CB        -1.5160   43.9510   -4.3960 C.3   131  GLN131      0.0367
    143  CG        -2.3210   43.2960   -5.5330 C.3   131  GLN131      0.0905
    144  CD        -2.7420   41.8650   -5.2550 C.2   131  GLN131      0.2608
    145  OE1       -3.9310   41.5710   -5.0460 O.2   131  GLN131     -0.2717
    146  NE2       -1.7690   40.9550   -5.2810 N.am  131  GLN131     -0.0878
    147  N          1.2040   51.8170   -4.1290 N.3   134  LEU134     -0.1245
    148  CA         0.8210   52.3440   -2.8290 C.3   134  LEU134      0.1561
    149  C          0.4820   53.8150   -2.9900 C.2   134  LEU134      0.2260
    150  O          1.2160   54.5430   -3.6630 O.2   134  LEU134     -0.2867
    151  CB         1.9880   52.2290   -1.8460 C.3   134  LEU134      0.0270
    152  CG         2.3610   50.7730   -1.5090 C.3   134  LEU134      0.0019
    153  CD1        3.3830   50.7290   -0.3580 C.3   134  LEU134      0.0001
    154  CD2        1.1080   50.0720   -1.0790 C.3   134  LEU134      0.0001
    155  N          6.0530   49.8610   -5.2010 N.3   144  ALA144     -0.1231
    156  CA         6.5280   49.2430   -3.9980 C.3   144  ALA144      0.1694
    157  C          6.7930   47.7420   -4.2460 C.2   144  ALA144      0.2592
    158  O          6.6290   47.2260   -5.3570 O.2   144  ALA144     -0.2718
    159  CB         5.4710   49.4580   -2.8620 C.3   144  ALA144      0.0304
    160  N          7.2320   47.0540   -3.1990 N.am  145  ASP145     -0.1974
    161  CA         7.4920   45.6100   -3.2430 C.3   145  ASP145      0.1709
    162  C          8.4410   45.1560   -4.3210 C.2   145  ASP145      0.2293
    163  O          8.0140   44.5830   -5.3180 O.2   145  ASP145     -0.2864
    164  CB         6.2210   44.7500   -3.2740 C.3   145  ASP145      0.1436
    165  CG         6.4880   43.3150   -2.7620 C.2   145  ASP145      0.3671
    166  OD1        7.6840   42.9140   -2.6730 O.co2 145  ASP145     -0.2456
    167  OD2        5.5140   42.5850   -2.4410 O.co2 145  ASP145     -0.2456
@<TRIPOS>BOND
     1   138   139    1
     2   143   144    1
     3   143   142    1
     4   158   157    2
     5   163   162    2
     6   146   144   am
     7   144   145    2
     8   155   156    1
     9   139   142    1
    10   139   140    1
    11   140   141    2
    12   162   161    1
    13   157   156    1
    14   157   160   am
    15   147   148    1
    16   156   159    1
    17   150   149    2
    18    56    57    1
    19   164   161    1
    20   164   165    1
    21   161   160    1
    22   129   130    1
    23   123   124    2
    24   123   122    1
    25   149   148    1
    26    47    48    1
    27   148   151    1
    28   165   166   ar
    29   165   167   ar
    30   127   126   ar
    31    48    49    1
    32    48    51    1
    33   131   132    2
    34   131   130    1
    35    50    49    2
    36   130   133    1
    37    57    60    1
    38    57    58    1
    39   125   122    1
    40   125   126    1
    41   122   121    1
    42    59    58    2
    43    61    60    1
    44   151   152    1
    45   126   128   ar
    46    60    62    1
    47    51    52    1
    48   152   154    1
    49   152   153    1
    50    55    53   ar
    51    52    53    1
    52   115   114    2
    53    53    54   ar
    54   133   134    1
    55   121   114   am
    56    81    80   ar
    57   114   113    1
    58   101    99    1
    59   100    99    1
    60   135   134    1
    61   135   136    1
    62   120   118   am
    63   119   118    2
    64   118   117    1
    65    24    25    2
    66    24    23    1
    67   117   116    1
    68   136   137    1
    69    80    82   ar
    70    80    79    1
    71    99    98    1
    72    46    45    1
    73   113   116    1
    74   113   112    1
    75    23    22    1
    76    98    95    1
    77    72    70   ar
    78    72    73   ar
    79   112   104   am
    80   110   108   ar
    81   110   111   ar
    82    79    78    1
    83    70    68   ar
    84    73    71   ar
    85   108   107   ar
    86    45    44    1
    87   111   109   ar
    88    22    15   am
    89    95    96    1
    90    95    94    1
    91    16    15    2
    92    96   102   am
    93    96    97    2
    94   102   103    1
    95   104   105    2
    96   104   103    1
    97    15    14    1
    98    78    75    1
    99    68    67    1
   100    68    69   ar
   101    44    43    1
   102   107   109   ar
   103   107   106    1
   104    71    69   ar
   105    94    85   am
   106    77    76    2
   107   103   106    1
   108    67    64    1
   109    86    85    2
   110    74    75    1
   111    74    65   am
   112    85    84    1
   113    75    76    1
   114    76    83   am
   115    64    65    1
   116    64    63    1
   117    18    17    1
   118    18    19    1
   119    14    17    1
   120    14    13    1
   121    43    42    1
   122    65    66    2
   123    21    19   ar
   124    83    84    1
   125    13    11   am
   126    84    87    1
   127    32    30    1
   128    19    20   ar
   129    42    39    1
   130    31    30    1
   131    37    34    1
   132    11    10    1
   133    11    12    2
   134    10     9    2
   135    30    27    1
   136    87    88    1
   137     8     6    1
   138    89    88   ar
   139    89    91   ar
   140     4     3    2
   141    88    90   ar
   142     9     3    1
   143    91    93   ar
   144    90    92   ar
   145    92    93   ar
   146     3     2    1
   147    36    35    2
   148    39    38    1
   149    39    40    1
   150     6     5    1
   151     5     2    1
   152     5     7    1
   153    34    35    1
   154    34    33    1
   155    27    26    1
   156    27    28    1
   157     2     1    1
   158    40    41    2
   159    28    29    2
