@<TRIPOS>MOLECULE
tmp/2uueD00.pdb
 108 104 0 0 0
SMALL
GASTEIGER

@<TRIPOS>ATOM
      1  N         10.4140   77.7750   11.8760 N.3    36  MET36      -0.1245
      2  CA        10.5700   76.9440   13.0770 C.3    36  MET36       0.1570
      3  C         12.0600   76.7150   13.3540 C.2    36  MET36       0.2261
      4  O         12.4870   76.7770   14.4880 O.2    36  MET36      -0.2867
      5  CB         9.8640   75.5940   12.8760 C.3    36  MET36       0.0387
      6  CG         8.3200   75.7100   12.7800 C.3    36  MET36       0.0595
      7  SD         7.5030   74.0950   12.6660 S.3    36  MET36      -0.1393
      8  CE         5.9590   74.5500   11.8680 C.3    36  MET36       0.0692
      9  N         13.3940   79.8420   15.0280 N.3    39  ILE39      -0.1231
     10  CA        13.0750   80.0180   16.4500 C.3    39  ILE39       0.1692
     11  C         14.0490   79.1470   17.2290 C.2    39  ILE39       0.2591
     12  O         14.5300   79.5040   18.3170 O.2    39  ILE39      -0.2718
     13  CB        11.5840   79.6030   16.7050 C.3    39  ILE39       0.0266
     14  CG1       10.6490   80.7060   16.1980 C.3    39  ILE39       0.0019
     15  CG2       11.3000   79.2730   18.1530 C.3    39  ILE39       0.0020
     16  CD1        9.3130   80.1830   15.6010 C.3    39  ILE39       0.0001
     17  N         14.3220   77.9600   16.6850 N.am   40  LEU40      -0.1980
     18  CA        15.1610   76.9810   17.3890 C.3    40  LEU40       0.1596
     19  C         16.5870   77.5000   17.5560 C.2    40  LEU40       0.2287
     20  O         17.1830   77.3930   18.6250 O.2    40  LEU40      -0.2864
     21  CB        15.2080   75.6530   16.6040 C.3    40  LEU40       0.0297
     22  CG        16.0840   74.5530   17.2010 C.3    40  LEU40       0.0022
     23  CD1       15.6170   74.1600   18.5740 C.3    40  LEU40       0.0001
     24  CD2       16.1080   73.3190   16.3120 C.3    40  LEU40       0.0001
     25  N         16.7040   80.2490   19.9940 N.3    43  TRP43      -0.1241
     26  CA        16.7310   79.6730   21.3230 C.3    43  TRP43       0.1605
     27  C         18.1020   79.1280   21.7820 C.2    43  TRP43       0.2264
     28  O         18.4730   79.2420   22.9680 O.2    43  TRP43      -0.2867
     29  CB        15.6450   78.5930   21.4170 C.3    43  TRP43       0.0550
     30  CG        15.5390   77.9720   22.7580 C.ar   43  TRP43       0.0003
     31  CD1       14.9620   78.5260   23.8620 C.ar   43  TRP43       0.0946
     32  CD2       15.9690   76.6530   23.1430 C.ar   43  TRP43       0.0152
     33  NE1       15.0590   77.6550   24.9210 N.ar   43  TRP43      -0.2442
     34  CE2       15.6580   76.4960   24.4990 C.ar   43  TRP43       0.0810
     35  CE3       16.5850   75.5950   22.4700 C.ar   43  TRP43       0.0012
     36  CZ2       15.9590   75.3380   25.2000 C.ar   43  TRP43       0.0191
     37  CZ3       16.8980   74.4670   23.1670 C.ar   43  TRP43       0.0001
     38  CH2       16.5600   74.3290   24.5090 C.ar   43  TRP43       0.0015
     39  N          7.0050   68.7360   14.5630 N.3    76  ARG76      -0.1231
     40  CA         7.3040   70.0390   15.1500 C.3    76  ARG76       0.1694
     41  C          7.4880   69.9350   16.6560 C.2    76  ARG76       0.2592
     42  O          8.3330   70.6280   17.2350 O.2    76  ARG76      -0.2718
     43  CB         6.2220   71.0650   14.7880 C.3    76  ARG76       0.0321
     44  CG         4.8710   70.8160   15.4540 C.3    76  ARG76       0.0489
     45  CD         3.7920   71.7630   14.8970 C.3    76  ARG76       0.2205
     46  NE         3.6430   71.5590   13.4610 N.pl3  76  ARG76      -0.0865
     47  CZ         3.0900   72.4290   12.6190 C.cat  76  ARG76       0.5346
     48  NH1        2.5240   73.5230   13.0860 N.pl3  76  ARG76       0.1354
     49  NH2        3.0570   72.1780   11.3160 N.pl3  76  ARG76       0.1354
     50  N          6.7480   69.0280   17.2840 N.am   77  GLY77      -0.1957
     51  CA         6.8780   68.8260   18.7340 C.3    77  GLY77       0.1869
     52  C          8.1210   68.0620   19.1750 C.2    77  GLY77       0.2309
     53  O          8.3910   67.9470   20.3800 O.2    77  GLY77      -0.2863
     54  N         11.1920   68.8590   17.3090 N.3    79  LEU79      -0.1231
     55  CA        12.2870   69.6490   16.7970 C.3    79  LEU79       0.1693
     56  C         13.2160   70.1490   17.9260 C.2    79  LEU79       0.2591
     57  O         14.4500   70.1220   17.7860 O.2    79  LEU79      -0.2718
     58  CB        11.7030   70.7740   15.9470 C.3    79  LEU79       0.0284
     59  CG        12.6710   71.7420   15.2790 C.3    79  LEU79       0.0019
     60  CD1       13.6160   71.0050   14.3170 C.3    79  LEU79       0.0001
     61  CD2       11.8790   72.8390   14.5530 C.3    79  LEU79       0.0001
     62  N         12.6460   70.5770   19.0550 N.am   80  GLN80      -0.1979
     63  CA        13.4410   71.1070   20.1640 C.3    80  GLN80       0.1601
     64  C         14.2670   70.0180   20.8270 C.2    80  GLN80       0.2287
     65  O         15.3030   70.2960   21.4460 O.2    80  GLN80      -0.2864
     66  CB        12.5840   71.8260   21.1990 C.3    80  GLN80       0.0394
     67  CG        13.4040   72.4480   22.3470 C.3    80  GLN80       0.0908
     68  CD        12.5810   73.3600   23.2680 C.2    80  GLN80       0.2608
     69  OE1       11.3600   73.2900   23.2960 O.2    80  GLN80      -0.2717
     70  NE2       13.2610   74.2110   24.0310 N.am   80  GLN80      -0.0878
     71  N         16.5900   73.3850   31.0510 N.3   107  ILE107     -0.1231
     72  CA        16.4380   74.5830   30.2430 C.3   107  ILE107      0.1692
     73  C         15.3410   74.5330   29.1850 C.2   107  ILE107      0.2593
     74  O         14.9870   75.5810   28.6370 O.2   107  ILE107     -0.2718
     75  CB        17.7710   75.1120   29.6510 C.3   107  ILE107      0.0266
     76  CG1       17.6890   76.6310   29.5110 C.3   107  ILE107      0.0019
     77  CG2       18.0800   74.4670   28.3050 C.3   107  ILE107      0.0020
     78  CD1       18.8320   77.3680   30.1300 C.3   107  ILE107      0.0001
     79  N         14.7920   73.3440   28.9030 N.am  108  THR108     -0.1939
     80  CA        13.6270   73.2820   28.0310 C.3   108  THR108      0.2028
     81  C         12.3130   73.3770   28.8230 C.2   108  THR108      0.2642
     82  O         11.2220   73.2180   28.2640 O.2   108  THR108     -0.2714
     83  CB        13.5660   71.9630   27.2420 C.3   108  THR108      0.1808
     84  OG1       13.2870   70.8920   28.1580 O.3   108  THR108     -0.2208
     85  CG2       14.8960   71.6900   26.5370 C.3   108  THR108      0.0379
     86  N         12.4030   73.5310   30.1400 N.am  109  ASP109     -0.1957
     87  CA        11.1760   73.6430   30.9160 C.3   109  ASP109      0.1840
     88  C         10.5840   72.2480   31.1070 C.2   109  ASP109      0.2622
     89  O          9.3710   72.0610   30.9870 O.2   109  ASP109     -0.2715
     90  CB        10.1850   74.5180   30.1390 C.3   109  ASP109      0.1450
     91  CG         9.4200   75.4800   31.0360 C.2   109  ASP109      0.3671
     92  OD1        9.3630   75.2180   32.2530 O.co2 109  ASP109     -0.2456
     93  OD2        8.8600   76.4800   30.5210 O.co2 109  ASP109     -0.2456
     94  N         11.4400   71.2640   31.3610 N.am  110  ASP110     -0.1957
     95  CA        11.0260   69.8670   31.3440 C.3   110  ASP110      0.1840
     96  C         10.0490   69.4850   30.2230 C.2   110  ASP110      0.2622
     97  O          9.0910   68.7330   30.4430 O.2   110  ASP110     -0.2715
     98  CB        10.4400   69.4850   32.7020 C.3   110  ASP110      0.1450
     99  CG        11.4510   69.6090   33.8330 C.2   110  ASP110      0.3671
    100  OD1       12.5140   68.9580   33.7700 O.co2 110  ASP110     -0.2456
    101  OD2       11.1700   70.3390   34.8110 O.co2 110  ASP110     -0.2456
    102  N         10.3130   69.9590   29.0100 N.am  111  THR111     -0.1951
    103  CA         9.5960   69.4730   27.8260 C.3   111  THR111      0.1897
    104  C          9.8770   67.9970   27.5000 C.2   111  THR111      0.2313
    105  O          9.0010   67.2700   27.0510 O.2   111  THR111     -0.2863
    106  CB         9.9120   70.3250   26.5910 C.3   111  THR111      0.1794
    107  OG1        9.6390   71.6910   26.8890 O.3   111  THR111     -0.2208
    108  CG2        9.0120   69.9200   25.4250 C.3   111  THR111      0.0378
@<TRIPOS>BOND
     1    49    47    1
     2     8     7    1
     3     1     2    1
     4    47    48    1
     5    47    46    2
     6     7     6    1
     7     6     5    1
     8     5     2    1
     9     2     3    1
    10     3     4    2
    11    46    45    1
    12    60    59    1
    13    61    59    1
    14    39    40    1
    15    43    40    1
    16    43    44    1
    17    45    44    1
    18     9    10    1
    19    40    41    1
    20    59    58    1
    21    16    14    1
    22    58    55    1
    23    14    13    1
    24    24    22    1
    25    10    13    1
    26    10    11    1
    27    21    22    1
    28    21    18    1
    29    41    42    2
    30    41    50   am
    31    17    11   am
    32    17    18    1
    33    13    15    1
    34    55    54    1
    35    55    56    1
    36    22    23    1
    37    11    12    2
    38    50    51    1
    39    18    19    1
    40    19    20    2
    41    57    56    2
    42    56    62   am
    43    51    52    1
    44    62    63    1
    45    52    53    2
    46    25    26    1
    47    63    64    1
    48    63    66    1
    49    64    65    2
    50    66    67    1
    51    26    29    1
    52    26    27    1
    53    29    30    1
    54    27    28    2
    55    67    68    1
    56    35    32   ar
    57    35    37   ar
    58    30    32   ar
    59    30    31   ar
    60    32    34   ar
    61    37    38   ar
    62    68    69    2
    63    68    70   am
    64    31    33   ar
    65    34    33   ar
    66    34    36   ar
    67    38    36   ar
    68   108   106    1
    69    85    83    1
    70   106   107    1
    71   106   103    1
    72   105   104    2
    73    83    80    1
    74    83    84    1
    75   104   103    1
    76   103   102    1
    77    80    81    1
    78    80    79    1
    79    82    81    2
    80    77    75    1
    81    74    73    2
    82    81    86   am
    83    79    73   am
    84   102    96   am
    85    73    72    1
    86    76    75    1
    87    76    78    1
    88    75    72    1
    89    90    87    1
    90    90    91    1
    91    86    87    1
    92    96    97    2
    93    96    95    1
    94    72    71    1
    95    93    91   ar
    96    87    88    1
    97    89    88    2
    98    91    92   ar
    99    88    94   am
   100    95    94    1
   101    95    98    1
   102    98    99    1
   103   100    99   ar
   104    99   101   ar
