@<TRIPOS>MOLECULE
tmp/2uuhA00.pdb
 107 103 0 0 0
SMALL
GASTEIGER

@<TRIPOS>ATOM
      1  N         13.8180   16.9120   22.7620 N.3    64  TYR64      -0.1241
      2  CA        13.7300   17.7300   23.9730 C.3    64  TYR64       0.1605
      3  C         15.0620   17.9650   24.6560 C.2    64  TYR64       0.2264
      4  O         15.1680   18.8300   25.5180 O.2    64  TYR64      -0.2867
      5  CB        12.7560   17.1460   25.0110 C.3    64  TYR64       0.0534
      6  CG        11.2680   17.3170   24.6530 C.ar   64  TYR64      -0.0201
      7  CD1       10.5170   18.4010   25.1800 C.ar   64  TYR64      -0.0009
      8  CD2       10.6200   16.4270   23.7810 C.ar   64  TYR64      -0.0009
      9  CE1        9.1420   18.5850   24.8420 C.ar   64  TYR64       0.0417
     10  CE2        9.2780   16.5850   23.4700 C.ar   64  TYR64       0.0417
     11  CZ         8.5360   17.6050   24.0390 C.ar   64  TYR64       0.1957
     12  OH         7.2180   17.7340   23.7150 O.3    64  TYR64      -0.2866
     13  N         16.3660   21.5420   24.8120 N.3    67  LEU67      -0.1245
     14  CA        15.5370   22.4020   25.6150 C.3    67  LEU67       0.1561
     15  C         15.9600   22.1780   27.0520 C.2    67  LEU67       0.2260
     16  O         16.0590   23.1050   27.8490 O.2    67  LEU67      -0.2867
     17  CB        14.0840   22.0040   25.4370 C.3    67  LEU67       0.0270
     18  CG        13.3460   22.5290   24.2380 C.3    67  LEU67       0.0019
     19  CD1       14.1290   22.7500   22.9480 C.3    67  LEU67       0.0001
     20  CD2       12.0630   21.7590   24.0650 C.3    67  LEU67       0.0001
     21  N          2.7900    2.2750   23.9760 N.3   106  ALA106     -0.1231
     22  CA         2.5450    3.7060   23.8060 C.3   106  ALA106      0.1694
     23  C          1.8780    4.2930   25.0660 C.2   106  ALA106      0.2591
     24  O          2.2700    5.3580   25.5350 O.2   106  ALA106     -0.2718
     25  CB         1.7260    3.9880   22.5690 C.3   106  ALA106      0.0304
     26  N          0.9250    3.5830   25.6520 N.am  107  GLN107     -0.1979
     27  CA         0.2140    4.0950   26.8360 C.3   107  GLN107      0.1601
     28  C          1.1690    4.2930   28.0570 C.2   107  GLN107      0.2287
     29  O          1.0010    5.2380   28.7920 O.2   107  GLN107     -0.2864
     30  CB        -1.0490    3.2240   27.1620 C.3   107  GLN107      0.0394
     31  CG        -1.9680    3.8230   28.2770 C.3   107  GLN107      0.0908
     32  CD        -1.4760    3.4440   29.6990 C.2   107  GLN107      0.2608
     33  OE1       -0.7790    2.4330   29.8970 O.2   107  GLN107     -0.2717
     34  NE2       -1.8610    4.2220   30.6740 N.am  107  GLN107     -0.0878
     35  N          4.1720    5.3900   28.0340 N.3   109  ARG109     -0.1231
     36  CA         4.9680    6.6270   27.9280 C.3   109  ARG109      0.1694
     37  C          4.3720    7.8360   28.7240 C.2   109  ARG109      0.2591
     38  O          5.1150    8.7800   29.0460 O.2   109  ARG109     -0.2718
     39  CB         5.1610    7.0730   26.4700 C.3   109  ARG109      0.0321
     40  CG         4.0870    8.0470   25.9180 C.3   109  ARG109      0.0489
     41  CD         4.1940    8.2130   24.4070 C.3   109  ARG109      0.2205
     42  NE         3.1900    9.1830   23.9650 N.pl3 109  ARG109     -0.0865
     43  CZ         1.8840    8.9070   23.7980 C.cat 109  ARG109      0.5346
     44  NH1        1.0660    9.8870   23.4480 N.pl3 109  ARG109      0.1354
     45  NH2        1.3640    7.6740   24.0260 N.pl3 109  ARG109      0.1354
     46  N          3.0750    7.7930   29.0290 N.am  110  LEU110     -0.1980
     47  CA         2.3400    8.9840   29.4750 C.3   110  LEU110      0.1596
     48  C          2.6610    9.4520   30.8930 C.2   110  LEU110      0.2287
     49  O          2.9520   10.6650   31.0980 O.2   110  LEU110     -0.2864
     50  CB         0.8370    8.8010   29.2830 C.3   110  LEU110      0.0297
     51  CG         0.4010    8.7230   27.8140 C.3   110  LEU110      0.0022
     52  CD1       -1.1240    8.2360   27.7940 C.3   110  LEU110      0.0001
     53  CD2        0.6690   10.0720   27.0720 C.3   110  LEU110      0.0001
     54  N          6.1920   10.9050   30.7730 N.3   113  LEU113     -0.1231
     55  CA         6.1880   12.1410   29.9910 C.3   113  LEU113      0.1693
     56  C          5.7110   13.3020   30.8760 C.2   113  LEU113      0.2592
     57  O          6.3330   14.3730   30.8880 O.2   113  LEU113     -0.2718
     58  CB         5.2610   12.0560   28.7620 C.3   113  LEU113      0.0284
     59  CG         5.1530   13.3400   27.9370 C.3   113  LEU113      0.0019
     60  CD1        6.5530   13.8180   27.2930 C.3   113  LEU113      0.0001
     61  CD2        4.0840   13.1240   26.9050 C.3   113  LEU113      0.0001
     62  N          4.6040   13.1040   31.5940 N.am  114  TYR114     -0.1976
     63  CA         4.1060   14.1160   32.5090 C.3   114  TYR114      0.1639
     64  C          5.0730   14.4530   33.6480 C.2   114  TYR114      0.2290
     65  O          5.2050   15.6270   33.9510 O.2   114  TYR114     -0.2864
     66  CB         2.7560   13.7350   33.1370 C.3   114  TYR114      0.0560
     67  CG         1.6890   13.4370   32.1780 C.ar  114  TYR114     -0.0198
     68  CD1        1.4810   14.2430   31.0860 C.ar  114  TYR114     -0.0009
     69  CD2        0.8520   12.3600   32.3820 C.ar  114  TYR114     -0.0009
     70  CE1        0.4720   13.9810   30.1960 C.ar  114  TYR114      0.0417
     71  CE2       -0.1690   12.0780   31.4870 C.ar  114  TYR114      0.0417
     72  CZ        -0.3250   12.9200   30.3940 C.ar  114  TYR114      0.1957
     73  OH        -1.3020   12.6810   29.4870 O.3   114  TYR114     -0.2866
     74  N          7.7450   16.6700   31.9630 N.3   117  ALA117     -0.1245
     75  CA         7.2190   17.9930   31.7030 C.3   117  ALA117      0.1562
     76  C          7.1670   18.8810   32.9740 C.2   117  ALA117      0.2260
     77  O          7.4810   20.1020   32.9000 O.2   117  ALA117     -0.2867
     78  CB         5.8380   17.8980   31.0510 C.3   117  ALA117      0.0290
     79  N         10.7720   19.9760   33.5980 N.3   120  LEU120     -0.1231
     80  CA        11.2770   20.9800   32.6190 C.3   120  LEU120      0.1693
     81  C         10.5410   22.3150   32.8660 C.2   120  LEU120      0.2592
     82  O         11.1710   23.3650   32.9000 O.2   120  LEU120     -0.2718
     83  CB        11.0050   20.4880   31.1630 C.3   120  LEU120      0.0284
     84  CG        11.7150   21.0350   29.9720 C.3   120  LEU120      0.0019
     85  CD1       13.2380   21.1720   30.3170 C.3   120  LEU120      0.0001
     86  CD2       11.5420   20.1060   28.7700 C.3   120  LEU120      0.0001
     87  N          9.2210   22.2710   33.0540 N.am  121  TRP121     -0.1976
     88  CA         8.5060   23.4800   33.3560 C.3   121  TRP121      0.1640
     89  C          9.0010   24.1980   34.6200 C.2   121  TRP121      0.2290
     90  O          9.0110   25.4260   34.6720 O.2   121  TRP121     -0.2864
     91  CB         7.0160   23.2310   33.4660 C.3   121  TRP121      0.0576
     92  CG         6.2620   23.2240   32.0970 C.ar  121  TRP121      0.0006
     93  CD1        5.4360   22.1870   31.5930 C.ar  121  TRP121      0.0946
     94  CD2        6.1610   24.2930   31.1330 C.ar  121  TRP121      0.0152
     95  NE1        4.8930   22.5610   30.3850 N.ar  121  TRP121     -0.2442
     96  CE2        5.3150   23.8220   30.0640 C.ar  121  TRP121      0.0810
     97  CE3        6.7020   25.5930   31.0540 C.ar  121  TRP121      0.0012
     98  CZ2        5.0120   24.5960   28.9440 C.ar  121  TRP121      0.0191
     99  CZ3        6.3750   26.3720   29.9430 C.ar  121  TRP121      0.0001
    100  CH2        5.5370   25.8630   28.8900 C.ar  121  TRP121      0.0015
    101  N         12.0470   25.9910   33.5660 N.3   124  VAL124     -0.1245
    102  CA        11.7250   27.1630   32.8160 C.3   124  VAL124      0.1561
    103  C         11.3260   28.2960   33.8130 C.2   124  VAL124      0.2260
    104  O         11.6990   29.4430   33.6240 O.2   124  VAL124     -0.2867
    105  CB        10.5940   26.8710   31.7990 C.3   124  VAL124      0.0252
    106  CG1        9.9100   28.1760   31.3520 C.3   124  VAL124      0.0019
    107  CG2       11.0760   26.0260   30.5810 C.3   124  VAL124      0.0019
@<TRIPOS>BOND
     1    25    22    1
     2     1     2    1
     3    19    18    1
     4    44    43    1
     5    10     8   ar
     6    10    11   ar
     7    12    11    1
     8     8     6   ar
     9    43    42    2
    10    43    45    1
    11    22    21    1
    12    22    23    1
    13    42    41    1
    14     2     3    1
    15     2     5    1
    16    11     9   ar
    17    20    18    1
    18    18    17    1
    19    41    40    1
    20     6     5    1
    21     6     7   ar
    22     3     4    2
    23    13    14    1
    24     9     7   ar
    25    23    24    2
    26    23    26   am
    27    17    14    1
    28    14    15    1
    29    26    27    1
    30    40    39    1
    31    39    36    1
    32    27    30    1
    33    27    28    1
    34    61    59    1
    35    15    16    2
    36    53    51    1
    37    30    31    1
    38    60    59    1
    39    52    51    1
    40    51    50    1
    41    36    35    1
    42    36    37    1
    43    59    58    1
    44    28    29    2
    45    31    32    1
    46    37    46   am
    47    37    38    2
    48    58    55    1
    49    86    84    1
    50   100    98   ar
    51   100    99   ar
    52    98    96   ar
    53    46    47    1
    54    50    47    1
    55    47    48    1
    56    73    72    1
    57    32    33    2
    58    32    34   am
    59    99    97   ar
    60    84    85    1
    61    84    83    1
    62    55    54    1
    63    55    56    1
    64    96    95   ar
    65    96    94   ar
    66    70    72   ar
    67    70    68   ar
    68    95    93   ar
    69    72    71   ar
    70   107   105    1
    71    56    57    2
    72    56    62   am
    73    48    49    2
    74    78    75    1
    75    97    94   ar
    76    68    67   ar
    77    94    92   ar
    78    83    80    1
    79   106   105    1
    80    71    69   ar
    81    93    92   ar
    82    62    63    1
    83    75    74    1
    84    75    76    1
    85   105   102    1
    86    92    91    1
    87    67    69   ar
    88    67    66    1
    89    63    66    1
    90    63    64    1
    91    80    81    1
    92    80    79    1
    93   102   101    1
    94   102   103    1
    95    81    82    2
    96    81    87   am
    97    77    76    2
    98    87    88    1
    99    88    91    1
   100    88    89    1
   101   104   103    2
   102    64    65    2
   103    89    90    2
