@<TRIPOS>MOLECULE
tmp/2uujB01.pdb
 205 207 0 0 0
SMALL
GASTEIGER

@<TRIPOS>ATOM
      1  N         -0.2420   26.6440   52.4230 N.3    43  HIS43      -0.1241
      2  CA        -0.1150   25.2570   52.8820 C.3    43  HIS43       0.1621
      3  C          0.6760   25.1730   54.1830 C.2    43  HIS43       0.2264
      4  O          0.7160   24.1020   54.7670 O.2    43  HIS43      -0.2867
      5  CB         0.5350   24.3750   51.7900 C.3    43  HIS43       0.0745
      6  CG         2.0100   24.3990   51.7070 C.ar   43  HIS43       0.0817
      7  ND1        2.6460   25.1760   50.7340 N.ar   43  HIS43      -0.2268
      8  CD2        3.0210   23.7990   52.3880 C.ar   43  HIS43       0.1154
      9  CE1        3.9560   25.0220   50.8810 C.ar   43  HIS43       0.1986
     10  NE2        4.2050   24.1830   51.8810 N.ar   43  HIS43      -0.2212
     11  N         -3.5950   22.4030   55.3090 N.3    47  TYR47      -0.1241
     12  CA        -3.3880   21.2920   54.3670 C.3    47  TYR47       0.1605
     13  C         -4.0240   20.0660   54.9790 C.2    47  TYR47       0.2264
     14  O         -3.3950   19.2560   55.6550 O.2    47  TYR47      -0.2867
     15  CB        -1.8900   21.0940   54.0610 C.3    47  TYR47       0.0534
     16  CG        -1.7950   20.1670   52.8660 C.ar   47  TYR47      -0.0201
     17  CD1       -2.3070   20.5480   51.6320 C.ar   47  TYR47      -0.0009
     18  CD2       -1.2010   18.9320   52.9880 C.ar   47  TYR47      -0.0009
     19  CE1       -2.2270   19.7080   50.5410 C.ar   47  TYR47       0.0417
     20  CE2       -1.1270   18.0770   51.9030 C.ar   47  TYR47       0.0417
     21  CZ        -1.6410   18.4600   50.6840 C.ar   47  TYR47       0.1957
     22  OH        -1.5240   17.5610   49.6370 O.3    47  TYR47      -0.2866
     23  N         -2.7280   16.2970   55.4280 N.3    50  TRP50      -0.1241
     24  CA        -1.7490   16.0660   56.4860 C.3    50  TRP50       0.1605
     25  C         -2.2930   16.5200   57.8370 C.2    50  TRP50       0.2264
     26  O         -1.5250   16.6970   58.7650 O.2    50  TRP50      -0.2867
     27  CB        -0.4430   16.8050   56.2410 C.3    50  TRP50       0.0550
     28  CG         0.2690   16.3520   55.0100 C.ar   50  TRP50       0.0003
     29  CD1        0.0160   15.2400   54.2600 C.ar   50  TRP50       0.0946
     30  CD2        1.3670   17.0150   54.3830 C.ar   50  TRP50       0.0152
     31  NE1        0.8940   15.1670   53.1990 N.ar   50  TRP50      -0.2442
     32  CE2        1.7320   16.2540   53.2560 C.ar   50  TRP50       0.0810
     33  CE3        2.0750   18.1890   54.6670 C.ar   50  TRP50       0.0012
     34  CZ2        2.7800   16.6540   52.4380 C.ar   50  TRP50       0.0191
     35  CZ3        3.1170   18.5780   53.8420 C.ar   50  TRP50       0.0001
     36  CH2        3.4510   17.8060   52.7400 C.ar   50  TRP50       0.0015
     37  N         -6.0150   23.3510   47.7850 N.3    92  TRP92      -0.1227
     38  CA        -5.2430   22.3260   48.4580 C.3    92  TRP92       0.1737
     39  C         -5.5820   20.9110   48.0060 C.2    92  TRP92       0.2595
     40  O         -4.8160   19.9830   48.2900 O.2    92  TRP92      -0.2718
     41  CB        -5.4390   22.4170   49.9660 C.3    92  TRP92       0.0564
     42  CG        -6.8390   22.4490   50.4410 C.ar   92  TRP92       0.0003
     43  CD1       -7.6020   23.5480   50.6580 C.ar   92  TRP92       0.0946
     44  CD2       -7.6440   21.3040   50.7590 C.ar   92  TRP92       0.0152
     45  NE1       -8.8630   23.1720   51.0980 N.ar   92  TRP92      -0.2442
     46  CE2       -8.8870   21.7980   51.1660 C.ar   92  TRP92       0.0810
     47  CE3       -7.3840   19.9320   50.7350 C.ar   92  TRP92       0.0012
     48  CZ2       -9.8820   20.9120   51.5410 C.ar   92  TRP92       0.0191
     49  CZ3       -8.3760   19.0510   51.1120 C.ar   92  TRP92       0.0001
     50  CH2       -9.6060   19.5810   51.5100 C.ar   92  TRP92       0.0015
     51  N         -6.7050   20.7590   47.3200 N.am   93  ARG93      -0.1966
     52  CA        -7.0930   19.4080   46.9110 C.3    93  ARG93       0.1729
     53  C         -6.2840   18.8530   45.7470 C.2    93  ARG93       0.2616
     54  O         -6.1530   17.6500   45.5530 O.2    93  ARG93      -0.2715
     55  CB        -8.5810   19.3700   46.5340 C.3    93  ARG93       0.0348
     56  CG        -9.4640   19.5660   47.7400 C.3    93  ARG93       0.0492
     57  CD       -10.9300   19.7240   47.2910 C.3    93  ARG93       0.2205
     58  NE       -11.7760   19.7270   48.4630 N.pl3  93  ARG93      -0.0865
     59  CZ       -12.1940   18.6010   49.0520 C.cat  93  ARG93       0.5346
     60  NH1      -11.8830   17.3900   48.6150 N.pl3  93  ARG93       0.1354
     61  NH2      -12.9560   18.7740   50.1170 N.pl3  93  ARG93       0.1354
     62  N         -5.7530   19.8020   44.9710 N.am   94  GLU94      -0.1963
     63  CA        -5.1220   19.3690   43.7280 C.3    94  GLU94       0.1733
     64  C         -3.6550   19.7300   43.6430 C.2    94  GLU94       0.2616
     65  O         -2.8100   18.8390   43.6530 O.2    94  GLU94      -0.2715
     66  CB        -5.8560   19.9900   42.5440 C.3    94  GLU94       0.0429
     67  CG        -5.3740   19.5290   41.1860 C.3    94  GLU94       0.1163
     68  CD        -5.9620   20.3300   40.0330 C.2    94  GLU94       0.3649
     69  OE1       -6.7600   21.2760   40.2570 O.co2  94  GLU94      -0.2457
     70  OE2       -5.6010   20.0110   38.8700 O.co2  94  GLU94      -0.2457
     71  N         -3.3360   21.0150   43.5500 N.am   95  ASN95      -0.1958
     72  CA        -1.9980   21.4420   43.2010 C.3    95  ASN95       0.1819
     73  C         -1.5110   22.6750   43.9640 C.2    95  ASN95       0.2621
     74  O         -0.5310   23.2990   43.5690 O.2    95  ASN95      -0.2715
     75  CB        -1.9810   21.7470   41.7100 C.3    95  ASN95       0.1195
     76  CG        -2.9850   22.7930   41.3080 C.2    95  ASN95       0.2630
     77  OD1       -3.6900   23.3410   42.1410 O.2    95  ASN95      -0.2716
     78  ND2       -3.0620   23.0490   40.0170 N.am   95  ASN95      -0.0877
     79  N         -2.1710   23.0160   45.0600 N.am   96  LEU96      -0.1977
     80  CA        -1.8560   24.2080   45.8610 C.3    96  LEU96       0.1596
     81  C         -1.9390   25.4830   45.0290 C.2    96  LEU96       0.2287
     82  O         -1.2440   26.4520   45.3280 O.2    96  LEU96      -0.2864
     83  CB        -0.4950   24.1430   46.5210 C.3    96  LEU96       0.0297
     84  CG        -0.1260   22.8850   47.2730 C.3    96  LEU96       0.0022
     85  CD1        1.1530   23.1010   48.1050 C.3    96  LEU96       0.0001
     86  CD2       -1.2140   22.3880   48.1940 C.3    96  LEU96       0.0001
     87  N          1.7640   16.8800   38.0540 N.3   172  ILE172     -0.1245
     88  CA         0.8300   17.8150   38.6720 C.3   172  ILE172      0.1561
     89  C          0.4950   18.9030   37.6730 C.2   172  ILE172      0.2260
     90  O          1.3640   19.3560   36.9280 O.2   172  ILE172     -0.2867
     91  CB         1.4860   18.4080   39.9280 C.3   172  ILE172      0.0252
     92  CG1        1.8820   17.3600   40.9770 C.3   172  ILE172      0.0019
     93  CG2        0.5770   19.4610   40.5540 C.3   172  ILE172      0.0019
     94  CD1        0.7220   16.5600   41.5030 C.3   172  ILE172      0.0001
     95  N         17.9090   23.6640   46.2590 N.3   192  ASP192     -0.1225
     96  CA        16.4530   23.6910   46.3060 C.3   192  ASP192      0.1805
     97  C         16.0480   24.0960   47.6960 C.2   192  ASP192      0.2598
     98  O         16.8270   24.0240   48.6310 O.2   192  ASP192     -0.2718
     99  CB        15.8980   22.2990   46.0340 C.3   192  ASP192      0.1424
    100  CG        14.4420   22.2250   45.6340 C.2   192  ASP192      0.3668
    101  OD1       13.9660   21.0690   45.4500 O.co2 192  ASP192     -0.2456
    102  OD2       13.7410   23.2640   45.5210 O.co2 192  ASP192     -0.2456
    103  N         14.7780   24.4600   47.7710 N.am  193  ALA193     -0.1966
    104  CA        14.1710   24.5440   49.0720 C.3   193  ALA193      0.1728
    105  C         13.8680   23.1270   49.5260 C.2   193  ALA193      0.2616
    106  O         13.9110   22.1720   48.7540 O.2   193  ALA193     -0.2715
    107  CB        12.9290   25.3810   48.9860 C.3   193  ALA193      0.0334
    108  N         13.5730   22.9550   50.8100 N.am  194  CYS194     -0.1954
    109  CA        13.1580   21.6460   51.3110 C.3   194  CYS194      0.1843
    110  C         12.2020   21.7900   52.4890 C.2   194  CYS194      0.2625
    111  O         11.7660   22.8920   52.7860 O.2   194  CYS194     -0.2714
    112  CB        14.3770   20.8260   51.7070 C.3   194  CYS194      0.0997
    113  SG        14.1280   19.0450   51.7730 S.3   194  CYS194     -0.0797
    114  N         11.8740   20.6850   53.1280 N.am  195  GLU195     -0.1977
    115  CA        10.9470   20.6790   54.2520 C.3   195  GLU195      0.1602
    116  C         11.3520   21.7120   55.2860 C.2   195  GLU195      0.2287
    117  O         12.5160   21.7200   55.7100 O.2   195  GLU195     -0.2864
    118  CB        10.9010   19.2730   54.8840 C.3   195  GLU195      0.0415
    119  CG         9.9900   19.2100   56.0840 C.3   195  GLU195      0.1163
    120  CD         9.7510   17.8250   56.6350 C.2   195  GLU195      0.3649
    121  OE1        9.9880   16.8630   55.8610 O.co2 195  GLU195     -0.2457
    122  OE2        9.3240   17.6930   57.8020 O.co2 195  GLU195     -0.2457
    123  N          9.0330   25.9930   53.1850 N.3   198  SER198     -0.1217
    124  CA         7.7370   26.3940   52.7040 C.3   198  SER198      0.1889
    125  C          7.3600   27.7580   53.2580 C.2   198  SER198      0.2288
    126  O          7.6240   27.9660   54.4360 O.2   198  SER198     -0.2866
    127  CB         6.6540   25.4460   53.2680 C.3   198  SER198      0.2089
    128  OG         6.6840   24.1780   52.7400 O.3   198  SER198     -0.2183
    129  N          7.8140   30.0800   48.5590 N.3   218  VAL218     -0.1231
    130  CA         8.1030   28.6600   48.4430 C.3   218  VAL218      0.1692
    131  C          6.8090   27.8700   48.5840 C.2   218  VAL218      0.2593
    132  O          6.1790   27.9360   49.6360 O.2   218  VAL218     -0.2718
    133  CB         9.1080   28.2060   49.5090 C.3   218  VAL218      0.0266
    134  CG1        9.2840   26.6920   49.4110 C.3   218  VAL218      0.0020
    135  CG2       10.4610   28.9230   49.3990 C.3   218  VAL218      0.0020
    136  N          6.4250   27.1140   47.5580 N.am  219  SER219     -0.1938
    137  CA         5.1650   26.3610   47.5360 C.3   219  SER219      0.2055
    138  C          5.4810   24.8830   47.5780 C.2   219  SER219      0.2643
    139  O          6.0730   24.4140   48.5310 O.2   219  SER219     -0.2714
    140  CB         4.3450   26.8370   46.3510 C.3   219  SER219      0.2130
    141  OG         3.0440   26.2380   46.3270 O.3   219  SER219     -0.2179
    142  N          5.1570   24.1200   46.5600 N.am  220  TRP220     -0.1959
    143  CA         5.3220   22.6690   46.5870 C.3   220  TRP220      0.1771
    144  C          6.5370   22.2060   45.7860 C.2   220  TRP220      0.2620
    145  O          7.0340   22.8870   44.9030 O.2   220  TRP220     -0.2715
    146  CB         4.0570   22.0260   46.0430 C.3   220  TRP220      0.0590
    147  CG         3.6380   22.4390   44.6710 C.ar  220  TRP220      0.0006
    148  CD1        2.9600   23.5450   44.2730 C.ar  220  TRP220      0.0946
    149  CD2        3.8980   21.6700   43.4980 C.ar  220  TRP220      0.0152
    150  NE1        2.7780   23.5280   42.9040 N.ar  220  TRP220     -0.2442
    151  CE2        3.3400   22.3850   42.4190 C.ar  220  TRP220      0.0810
    152  CE3        4.5290   20.4510   43.2600 C.ar  220  TRP220      0.0012
    153  CZ2        3.4140   21.9070   41.1090 C.ar  220  TRP220      0.0191
    154  CZ3        4.5800   20.0160   41.9430 C.ar  220  TRP220      0.0001
    155  CH2        4.0340   20.7250   40.8690 C.ar  220  TRP220      0.0015
    156  N          7.0090   21.0020   46.0990 N.am  221  GLY221     -0.1940
    157  CA         8.0410   20.3040   45.3710 C.3   221  GLY221      0.2014
    158  C          7.9020   18.7980   45.5650 C.2   221  GLY221      0.2639
    159  O          7.2920   18.3900   46.5520 O.2   221  GLY221     -0.2714
    160  N          8.4490   17.9960   44.7120 N.am  222  GLU222     -0.1963
    161  CA         8.4320   16.5220   44.8110 C.3   222  GLU222      0.1733
    162  C          9.8680   16.1710   45.1640 C.2   222  GLU222      0.2617
    163  O         10.8290   16.2170   44.4110 O.2   222  GLU222     -0.2715
    164  CB         7.8830   15.9030   43.5340 C.3   222  GLU222      0.0429
    165  CG         6.4490   16.3740   43.2730 C.3   222  GLU222      0.1163
    166  CD         5.9010   16.0300   41.9070 C.2   222  GLU222      0.3649
    167  OE1        5.0840   15.0580   41.8410 O.co2 222  GLU222     -0.2457
    168  OE2        6.2690   16.6870   40.9130 O.co2 222  GLU222     -0.2457
    169  N         10.0520   15.8970   46.4560 N.am  223  GLY223     -0.1940
    170  CA        11.3980   15.6670   46.9500 C.3   223  GLY223      0.2014
    171  C         12.1400   16.9660   47.0790 C.2   223  GLY223      0.2639
    172  O         11.4890   18.0180   47.0760 O.2   223  GLY223     -0.2714
    173  N         13.4530   16.9130   47.2010 N.am  224  CYS224     -0.1967
    174  CA        14.2240   18.1290   47.3500 C.3   224  CYS224      0.1712
    175  C         15.5260   17.9160   46.5580 C.2   224  CYS224      0.2296
    176  O         16.1700   16.9170   46.7750 O.2   224  CYS224     -0.2864
    177  CB        14.5810   18.5130   48.7920 C.3   224  CYS224      0.0983
    178  SG        13.1840   18.5940   49.9200 S.3   224  CYS224     -0.0798
    179  N         11.5320   23.2010   42.0840 N.3   231  GLY231     -0.1210
    180  CA        10.6340   23.6590   43.1290 C.3   231  GLY231      0.1956
    181  C          9.6230   24.6280   42.5300 C.2   231  GLY231      0.2612
    182  O          9.9100   25.3270   41.5790 O.2   231  GLY231     -0.2717
    183  N          8.4260   24.6320   43.0850 N.am  232  PHE232     -0.1962
    184  CA         7.3910   25.5310   42.6470 C.3   232  PHE232      0.1771
    185  C          7.1210   26.6300   43.6900 C.2   232  PHE232      0.2619
    186  O          7.2880   26.4020   44.8590 O.2   232  PHE232     -0.2715
    187  CB         6.1150   24.7640   42.3240 C.3   232  PHE232      0.0574
    188  CG         6.2890   23.9940   41.0260 C.ar  232  PHE232     -0.0200
    189  CD1        6.9690   22.7900   41.0000 C.ar  232  PHE232     -0.0042
    190  CD2        5.7580   24.5090   39.8600 C.ar  232  PHE232     -0.0042
    191  CE1        7.1320   22.1150   39.8090 C.ar  232  PHE232     -0.0003
    192  CE2        5.9230   23.8380   38.6590 C.ar  232  PHE232     -0.0003
    193  CZ         6.5970   22.6370   38.6470 C.ar  232  PHE232     -0.0000
    194  N          6.8100   27.8000   43.1650 N.am  233  TYR233     -0.1974
    195  CA         6.6720   29.0410   43.8890 C.3   233  TYR233      0.1639
    196  C          5.3900   29.7240   43.4870 C.2   233  TYR233      0.2290
    197  O          4.9720   29.7800   42.3420 O.2   233  TYR233     -0.2864
    198  CB         7.8620   29.9480   43.5970 C.3   233  TYR233      0.0560
    199  CG         9.1640   29.3420   44.0410 C.ar  233  TYR233     -0.0198
    200  CD1        9.8260   28.4190   43.2430 C.ar  233  TYR233     -0.0009
    201  CD2        9.7200   29.6370   45.2800 C.ar  233  TYR233     -0.0009
    202  CE1       11.0130   27.8440   43.6590 C.ar  233  TYR233      0.0417
    203  CE2       10.8830   29.0530   45.6950 C.ar  233  TYR233      0.0417
    204  CZ        11.5210   28.1540   44.8830 C.ar  233  TYR233      0.1957
    205  OH        12.7010   27.5900   45.3360 O.3   233  TYR233     -0.2866
@<TRIPOS>BOND
     1    90    89    2
     2    89    88    1
     3    87    88    1
     4   193   192   ar
     5   193   191   ar
     6   192   190   ar
     7    88    91    1
     8    70    68   ar
     9   191   189   ar
    10   190   188   ar
    11    91    93    1
    12    91    92    1
    13    78    76   am
    14    68    69   ar
    15    68    67    1
    16   155   153   ar
    17   155   154   ar
    18   168   166   ar
    19    92    94    1
    20   189   188   ar
    21   188   187    1
    22   153   151   ar
    23    67    66    1
    24    76    75    1
    25    76    77    2
    26   182   181    2
    27    75    72    1
    28   167   166   ar
    29   166   165    1
    30   154   152   ar
    31   179   180    1
    32   187   184    1
    33   197   196    2
    34   151   150   ar
    35   151   149   ar
    36   181   183   am
    37   181   180    1
    38    66    63    1
    39   184   183    1
    40   184   185    1
    41   150   148   ar
    42   194   185   am
    43   194   195    1
    44    72    71    1
    45    72    73    1
    46   200   202   ar
    47   200   199   ar
    48   152   149   ar
    49   165   164    1
    50   196   195    1
    51   149   147   ar
    52   164   161    1
    53    71    64   am
    54    74    73    2
    55   198   195    1
    56   198   199    1
    57    64    65    2
    58    64    63    1
    59   202   204   ar
    60   185   186    2
    61    63    62    1
    62    73    79   am
    63   199   201   ar
    64   148   147   ar
    65   163   162    2
    66   147   146    1
    67   160   161    1
    68   160   158   am
    69   161   162    1
    70   204   205    1
    71   204   203   ar
    72   145   144    2
    73    62    53   am
    74    81    82    2
    75    81    80    1
    76    79    80    1
    77   162   169   am
    78   201   203   ar
    79   157   158    1
    80   157   156    1
    81   101   100   ar
    82   102   100   ar
    83    54    53    2
    84   158   159    2
    85   100    99    1
    86    53    52    1
    87   144   156   am
    88   144   143    1
    89    80    83    1
    90    99    96    1
    91   146   143    1
    92    95    96    1
    93    96    97    1
    94   141   140    1
    95   140   137    1
    96   169   170    1
    97    83    84    1
    98    55    52    1
    99    55    56    1
   100   175   176    2
   101   175   174    1
   102   142   143    1
   103   142   138   am
   104    52    51    1
   105   170   171    1
   106   172   171    2
   107   171   173   am
   108   173   174    1
   109    84    85    1
   110    84    86    1
   111    57    56    1
   112    57    58    1
   113    51    39   am
   114   174   177    1
   115   137   136    1
   116   137   138    1
   117   136   131   am
   118   138   139    2
   119    97   103   am
   120    97    98    2
   121   103   104    1
   122    37    38    1
   123    39    40    2
   124    39    38    1
   125   130   129    1
   126   130   131    1
   127   130   133    1
   128    38    41    1
   129    58    59    2
   130   131   132    2
   131    60    59    1
   132   106   105    2
   133   177   178    1
   134   107   104    1
   135    59    61    1
   136   104   105    1
   137   135   133    1
   138   134   133    1
   139   105   108   am
   140    22    21    1
   141   178   113    1
   142    41    42    1
   143    42    43   ar
   144    42    44   ar
   145    19    21   ar
   146    19    17   ar
   147    43    45   ar
   148    21    20   ar
   149     7     9   ar
   150     7     6   ar
   151    47    44   ar
   152    47    49   ar
   153    44    46   ar
   154   108   109    1
   155     9    10   ar
   156    45    46   ar
   157    49    50   ar
   158    46    48   ar
   159   109   112    1
   160   109   110    1
   161    50    48   ar
   162    17    16   ar
   163   112   113    1
   164     6     5    1
   165     6     8   ar
   166     5     2    1
   167    10     8   ar
   168    20    18   ar
   169     1     2    1
   170    34    36   ar
   171    34    32   ar
   172   110   111    2
   173   110   114   am
   174   124   123    1
   175   124   125    1
   176   124   127    1
   177    36    35   ar
   178   128   127    1
   179    16    18   ar
   180    16    15    1
   181     2     3    1
   182   114   115    1
   183    31    32   ar
   184    31    29   ar
   185    32    30   ar
   186   125   126    2
   187    35    33   ar
   188    15    12    1
   189     3     4    2
   190   115   118    1
   191   115   116    1
   192    29    28   ar
   193    12    13    1
   194    12    11    1
   195    30    33   ar
   196    30    28   ar
   197   118   119    1
   198    13    14    2
   199    28    27    1
   200   116   117    2
   201    23    24    1
   202   121   120   ar
   203   119   120    1
   204    27    24    1
   205    24    25    1
   206   120   122   ar
   207    25    26    2
