@<TRIPOS>MOLECULE
tmp/2uukB01.pdb
 205 207 0 0 0
SMALL
GASTEIGER

@<TRIPOS>ATOM
      1  N         -0.0620   26.5690   52.4590 N.3    43  HIS43      -0.1241
      2  CA         0.1260   25.1820   52.9200 C.3    43  HIS43       0.1621
      3  C          0.9240   25.0710   54.2250 C.2    43  HIS43       0.2264
      4  O          0.9740   23.9970   54.8320 O.2    43  HIS43      -0.2867
      5  CB         0.7650   24.2970   51.8460 C.3    43  HIS43       0.0745
      6  CG         2.2480   24.3330   51.7130 C.ar   43  HIS43       0.0817
      7  ND1        2.8950   25.0990   50.7450 N.ar   43  HIS43      -0.2268
      8  CD2        3.2370   23.6860   52.3680 C.ar   43  HIS43       0.1154
      9  CE1        4.2120   24.9210   50.8590 C.ar   43  HIS43       0.1986
     10  NE2        4.4500   24.0550   51.8440 N.ar   43  HIS43      -0.2212
     11  N         -3.3700   22.2680   55.3840 N.3    47  TYR47      -0.1241
     12  CA        -3.1880   21.1890   54.4040 C.3    47  TYR47       0.1605
     13  C         -3.8270   19.9430   55.0170 C.2    47  TYR47       0.2264
     14  O         -3.1980   19.1270   55.6770 O.2    47  TYR47      -0.2867
     15  CB        -1.7070   20.9980   54.0390 C.3    47  TYR47       0.0534
     16  CG        -1.6110   20.0440   52.8450 C.ar   47  TYR47      -0.0201
     17  CD1       -2.1410   20.4090   51.6220 C.ar   47  TYR47      -0.0009
     18  CD2       -1.0270   18.8040   52.9530 C.ar   47  TYR47      -0.0009
     19  CE1       -2.0870   19.5680   50.4900 C.ar   47  TYR47       0.0417
     20  CE2       -0.9570   17.9490   51.8530 C.ar   47  TYR47       0.0417
     21  CZ        -1.4890   18.3280   50.6250 C.ar   47  TYR47       0.1957
     22  OH        -1.4150   17.4420   49.5800 O.3    47  TYR47      -0.2866
     23  N         -2.4710   16.1190   55.3950 N.3    50  TRP50      -0.1241
     24  CA        -1.4650   15.8600   56.4080 C.3    50  TRP50       0.1605
     25  C         -1.9430   16.3610   57.7770 C.2    50  TRP50       0.2264
     26  O         -1.1090   16.5780   58.6570 O.2    50  TRP50      -0.2867
     27  CB        -0.1350   16.5670   56.0620 C.3    50  TRP50       0.0550
     28  CG         0.4610   16.0730   54.7730 C.ar   50  TRP50       0.0003
     29  CD1        0.0720   14.9460   54.0900 C.ar   50  TRP50       0.0946
     30  CD2        1.5290   16.6430   53.9950 C.ar   50  TRP50       0.0152
     31  NE1        0.8440   14.8070   52.9470 N.ar   50  TRP50      -0.2442
     32  CE2        1.7390   15.8300   52.8650 C.ar   50  TRP50       0.0810
     33  CE3        2.3360   17.7850   54.1590 C.ar   50  TRP50       0.0012
     34  CZ2        2.7120   16.1220   51.9130 C.ar   50  TRP50       0.0191
     35  CZ3        3.2930   18.0690   53.2140 C.ar   50  TRP50       0.0001
     36  CH2        3.4760   17.2370   52.0970 C.ar   50  TRP50       0.0015
     37  N         -5.9100   23.3450   47.8240 N.3    92  TRP92      -0.1227
     38  CA        -5.1600   22.3300   48.5380 C.3    92  TRP92       0.1737
     39  C         -5.5030   20.9160   48.0540 C.2    92  TRP92       0.2595
     40  O         -4.7120   19.9910   48.2900 O.2    92  TRP92      -0.2718
     41  CB        -5.3540   22.4470   50.0470 C.3    92  TRP92       0.0564
     42  CG        -6.7590   22.4310   50.5280 C.ar   92  TRP92       0.0003
     43  CD1       -7.5240   23.5160   50.7680 C.ar   92  TRP92       0.0946
     44  CD2       -7.6000   21.3050   50.8670 C.ar   92  TRP92       0.0152
     45  NE1       -8.7790   23.1600   51.2100 N.ar   92  TRP92      -0.2442
     46  CE2       -8.8430   21.7920   51.2850 C.ar   92  TRP92       0.0810
     47  CE3       -7.3690   19.9360   50.8410 C.ar   92  TRP92       0.0012
     48  CZ2       -9.8920   20.9580   51.6810 C.ar   92  TRP92       0.0191
     49  CZ3       -8.3930   19.1140   51.2310 C.ar   92  TRP92       0.0001
     50  CH2       -9.6280   19.6200   51.6440 C.ar   92  TRP92       0.0015
     51  N         -6.6250   20.7410   47.3720 N.am   93  ARG93      -0.1966
     52  CA        -7.0180   19.3860   46.9390 C.3    93  ARG93       0.1729
     53  C         -6.2030   18.8590   45.7790 C.2    93  ARG93       0.2616
     54  O         -6.0860   17.6420   45.5990 O.2    93  ARG93      -0.2715
     55  CB        -8.5050   19.3670   46.5850 C.3    93  ARG93       0.0348
     56  CG        -9.4290   19.5430   47.7700 C.3    93  ARG93       0.0492
     57  CD       -10.8940   19.7130   47.3550 C.3    93  ARG93       0.2205
     58  NE       -11.7470   19.7630   48.5250 N.pl3  93  ARG93      -0.0865
     59  CZ       -12.1620   18.6590   49.1570 C.cat  93  ARG93       0.5346
     60  NH1      -11.8450   17.4310   48.7600 N.pl3  93  ARG93       0.1354
     61  NH2      -12.9150   18.8180   50.2100 N.pl3  93  ARG93       0.1354
     62  N         -5.6560   19.7830   44.9780 N.am   94  GLU94      -0.1963
     63  CA        -5.0200   19.3530   43.6980 C.3    94  GLU94       0.1733
     64  C         -3.5560   19.6920   43.6120 C.2    94  GLU94       0.2616
     65  O         -2.7190   18.7980   43.5760 O.2    94  GLU94      -0.2715
     66  CB        -5.7440   19.9810   42.4960 C.3    94  GLU94       0.0429
     67  CG        -5.1590   19.4680   41.1960 C.3    94  GLU94       0.1163
     68  CD        -5.6980   20.1250   39.9440 C.2    94  GLU94       0.3649
     69  OE1       -6.6130   21.0000   40.1210 O.co2  94  GLU94      -0.2457
     70  OE2       -5.1730   19.7130   38.8640 O.co2  94  GLU94      -0.2457
     71  N         -3.2310   20.9800   43.5710 N.am   95  ASN95      -0.1958
     72  CA        -1.9060   21.4440   43.1920 C.3    95  ASN95       0.1819
     73  C         -1.3980   22.6540   43.9790 C.2    95  ASN95       0.2621
     74  O         -0.3890   23.2460   43.5680 O.2    95  ASN95      -0.2715
     75  CB        -1.8940   21.7330   41.6760 C.3    95  ASN95       0.1195
     76  CG        -2.9680   22.7340   41.2960 C.2    95  ASN95       0.2630
     77  OD1       -3.6700   23.2870   42.1490 O.2    95  ASN95      -0.2716
     78  ND2       -3.0730   22.9700   39.9960 N.am   95  ASN95      -0.0877
     79  N         -2.0250   22.9880   45.0690 N.am   96  LEU96      -0.1977
     80  CA        -1.7100   24.1860   45.8640 C.3    96  LEU96       0.1596
     81  C         -1.8120   25.4420   45.0070 C.2    96  LEU96       0.2287
     82  O         -1.1180   26.4170   45.2740 O.2    96  LEU96      -0.2864
     83  CB        -0.3610   24.1610   46.5310 C.3    96  LEU96       0.0297
     84  CG         0.0340   22.8970   47.2990 C.3    96  LEU96       0.0022
     85  CD1        1.3270   23.1120   48.0980 C.3    96  LEU96       0.0001
     86  CD2       -1.0460   22.3720   48.2110 C.3    96  LEU96       0.0001
     87  N          1.9110   16.8370   38.0720 N.3   172  ILE172     -0.1245
     88  CA         0.9640   17.7840   38.6540 C.3   172  ILE172      0.1561
     89  C          0.6430   18.8760   37.6550 C.2   172  ILE172      0.2260
     90  O          1.5060   19.3420   36.8860 O.2   172  ILE172     -0.2867
     91  CB         1.6100   18.3980   39.9110 C.3   172  ILE172      0.0252
     92  CG1        2.0010   17.3500   40.9480 C.3   172  ILE172      0.0019
     93  CG2        0.7160   19.4610   40.5040 C.3   172  ILE172      0.0019
     94  CD1        0.8120   16.5990   41.4820 C.3   172  ILE172      0.0001
     95  N         18.1810   23.6270   45.9670 N.3   192  ASP192     -0.1225
     96  CA        16.7130   23.6440   46.0690 C.3   192  ASP192      0.1805
     97  C         16.2960   24.0360   47.4780 C.2   192  ASP192      0.2598
     98  O         17.0890   23.9000   48.4420 O.2   192  ASP192     -0.2718
     99  CB        16.2100   22.2300   45.7610 C.3   192  ASP192      0.1424
    100  CG        14.7390   22.1460   45.3950 C.2   192  ASP192      0.3668
    101  OD1       14.2350   20.9990   45.2580 O.co2 192  ASP192     -0.2456
    102  OD2       14.0490   23.2200   45.2710 O.co2 192  ASP192     -0.2456
    103  N         15.0400   24.4180   47.5990 N.am  193  ALA193     -0.1966
    104  CA        14.3920   24.4540   48.9190 C.3   193  ALA193      0.1728
    105  C         14.1290   23.0260   49.3670 C.2   193  ALA193      0.2616
    106  O         14.2040   22.1040   48.5540 O.2   193  ALA193     -0.2715
    107  CB        13.1280   25.2840   48.8860 C.3   193  ALA193      0.0334
    108  N         13.8290   22.8450   50.6540 N.am  194  CYS194     -0.1954
    109  CA        13.4290   21.5400   51.1760 C.3   194  CYS194      0.1843
    110  C         12.4740   21.6660   52.3670 C.2   194  CYS194      0.2625
    111  O         12.0260   22.7760   52.6820 O.2   194  CYS194     -0.2714
    112  CB        14.6750   20.7450   51.4840 C.3   194  CYS194      0.0997
    113  SG        14.4400   18.9520   51.6020 S.3   194  CYS194     -0.0797
    114  N         12.1100   20.5670   53.0190 N.am  195  GLU195     -0.1977
    115  CA        11.1750   20.5970   54.1310 C.3   195  GLU195      0.1602
    116  C         11.5660   21.6310   55.1840 C.2   195  GLU195      0.2287
    117  O         12.7230   21.6400   55.6080 O.2   195  GLU195     -0.2864
    118  CB        11.0910   19.1920   54.7700 C.3   195  GLU195      0.0415
    119  CG        10.0630   19.1310   55.8930 C.3   195  GLU195      0.1163
    120  CD         9.6820   17.8000   56.4580 C.2   195  GLU195      0.3649
    121  OE1       10.2260   16.8060   55.9580 O.co2 195  GLU195     -0.2457
    122  OE2        8.8350   17.7300   57.3730 O.co2 195  GLU195     -0.2457
    123  N          9.2790   25.9030   53.1190 N.3   198  SER198     -0.1217
    124  CA         7.9830   26.3010   52.6720 C.3   198  SER198      0.1889
    125  C          7.6010   27.6450   53.2450 C.2   198  SER198      0.2288
    126  O          7.8750   27.9110   54.4200 O.2   198  SER198     -0.2866
    127  CB         6.9140   25.3470   53.2730 C.3   198  SER198      0.2089
    128  OG         6.9370   24.0700   52.7080 O.3   198  SER198     -0.2183
    129  N          8.0420   29.9880   48.5080 N.3   218  VAL218     -0.1231
    130  CA         8.3160   28.5580   48.3930 C.3   218  VAL218      0.1692
    131  C          7.0100   27.7700   48.5610 C.2   218  VAL218      0.2593
    132  O          6.3920   27.8430   49.6180 O.2   218  VAL218     -0.2718
    133  CB         9.3390   28.1050   49.4410 C.3   218  VAL218      0.0266
    134  CG1        9.5900   26.5930   49.3270 C.3   218  VAL218      0.0020
    135  CG2       10.7050   28.8440   49.3480 C.3   218  VAL218      0.0020
    136  N          6.6290   27.0670   47.4810 N.am  219  SER219     -0.1938
    137  CA         5.3730   26.2910   47.4730 C.3   219  SER219      0.2055
    138  C          5.7000   24.8120   47.4880 C.2   219  SER219      0.2643
    139  O          6.3470   24.3750   48.4250 O.2   219  SER219     -0.2714
    140  CB         4.5280   26.7920   46.3120 C.3   219  SER219      0.2130
    141  OG         3.2310   26.2080   46.2710 O.3   219  SER219     -0.2179
    142  N          5.2970   24.0280   46.5000 N.am  220  TRP220     -0.1959
    143  CA         5.5120   22.6040   46.4800 C.3   220  TRP220      0.1771
    144  C          6.7370   22.1580   45.6670 C.2   220  TRP220      0.2620
    145  O          7.2120   22.8590   44.7770 O.2   220  TRP220     -0.2715
    146  CB         4.2200   21.9750   45.9450 C.3   220  TRP220      0.0590
    147  CG         3.7860   22.3810   44.5550 C.ar  220  TRP220      0.0006
    148  CD1        3.1050   23.4630   44.1890 C.ar  220  TRP220      0.0946
    149  CD2        4.0600   21.6370   43.3540 C.ar  220  TRP220      0.0152
    150  NE1        2.9100   23.4720   42.8420 N.ar  220  TRP220     -0.2442
    151  CE2        3.4780   22.3630   42.3020 C.ar  220  TRP220      0.0810
    152  CE3        4.7170   20.4290   43.0550 C.ar  220  TRP220      0.0012
    153  CZ2        3.5480   21.9270   40.9830 C.ar  220  TRP220      0.0191
    154  CZ3        4.7660   20.0080   41.7390 C.ar  220  TRP220      0.0001
    155  CH2        4.1830   20.7580   40.7230 C.ar  220  TRP220      0.0015
    156  N          7.2030   20.9600   46.0190 N.am  221  GLY221     -0.1940
    157  CA         8.2300   20.2650   45.2910 C.3   221  GLY221      0.2014
    158  C          8.0540   18.7450   45.4680 C.2   221  GLY221      0.2639
    159  O          7.3430   18.3400   46.3750 O.2   221  GLY221     -0.2714
    160  N          8.7160   18.0020   44.6070 N.am  222  GLU222     -0.1963
    161  CA         8.6740   16.5210   44.6580 C.3   222  GLU222      0.1733
    162  C         10.1050   16.1410   44.9740 C.2   222  GLU222      0.2617
    163  O         11.0710   16.1840   44.2030 O.2   222  GLU222     -0.2715
    164  CB         8.1160   15.9640   43.3520 C.3   222  GLU222      0.0429
    165  CG         6.6490   16.3620   43.1440 C.3   222  GLU222      0.1163
    166  CD         6.1280   16.0250   41.7580 C.2   222  GLU222      0.3649
    167  OE1        6.5870   16.6820   40.7920 O.co2 222  GLU222     -0.2457
    168  OE2        5.2490   15.1280   41.6640 O.co2 222  GLU222     -0.2457
    169  N         10.3150   15.7960   46.2260 N.am  223  GLY223     -0.1940
    170  CA        11.6840   15.5970   46.6970 C.3   223  GLY223      0.2014
    171  C         12.3810   16.9240   46.8500 C.2   223  GLY223      0.2639
    172  O         11.7210   17.9810   46.8830 O.2   223  GLY223     -0.2714
    173  N         13.6930   16.8870   46.9620 N.am  224  CYS224     -0.1967
    174  CA        14.4900   18.0860   47.1220 C.3   224  CYS224      0.1712
    175  C         15.8070   17.8420   46.3610 C.2   224  CYS224      0.2296
    176  O         16.5070   16.8360   46.5840 O.2   224  CYS224     -0.2864
    177  CB        14.7570   18.4790   48.5740 C.3   224  CYS224      0.0983
    178  SG        13.4030   18.4940   49.7670 S.3   224  CYS224     -0.0798
    179  N         11.7420   23.1720   41.9190 N.3   231  GLY231     -0.1210
    180  CA        10.8520   23.6780   42.9420 C.3   231  GLY231      0.1956
    181  C          9.8270   24.6240   42.3470 C.2   231  GLY231      0.2612
    182  O         10.1400   25.3470   41.3790 O.2   231  GLY231     -0.2717
    183  N          8.6570   24.6310   42.9580 N.am  232  PHE232     -0.1962
    184  CA         7.5800   25.5020   42.5270 C.3   232  PHE232      0.1771
    185  C          7.3170   26.6100   43.5540 C.2   232  PHE232      0.2619
    186  O          7.4710   26.4080   44.7650 O.2   232  PHE232     -0.2715
    187  CB         6.2880   24.7380   42.2140 C.3   232  PHE232      0.0574
    188  CG         6.4420   24.0040   40.8990 C.ar  232  PHE232     -0.0200
    189  CD1        7.1490   22.8210   40.7970 C.ar  232  PHE232     -0.0042
    190  CD2        5.8690   24.5370   39.7510 C.ar  232  PHE232     -0.0042
    191  CE1        7.3000   22.1820   39.5690 C.ar  232  PHE232     -0.0003
    192  CE2        5.9880   23.9200   38.5120 C.ar  232  PHE232     -0.0003
    193  CZ         6.6800   22.7460   38.4630 C.ar  232  PHE232     -0.0000
    194  N          6.9810   27.7920   43.0580 N.am  233  TYR233     -0.1974
    195  CA         6.8550   29.0440   43.7910 C.3   233  TYR233      0.1639
    196  C          5.5430   29.7310   43.4360 C.2   233  TYR233      0.2290
    197  O          5.1840   29.7820   42.2710 O.2   233  TYR233     -0.2864
    198  CB         8.0470   29.9850   43.4790 C.3   233  TYR233      0.0560
    199  CG         9.3390   29.3200   43.8930 C.ar  233  TYR233     -0.0198
    200  CD1       10.0180   28.4220   43.0600 C.ar  233  TYR233     -0.0009
    201  CD2        9.9000   29.5610   45.1390 C.ar  233  TYR233     -0.0009
    202  CE1       11.2010   27.8130   43.4530 C.ar  233  TYR233      0.0417
    203  CE2       11.0530   28.9190   45.5090 C.ar  233  TYR233      0.0417
    204  CZ        11.7160   28.0490   44.6840 C.ar  233  TYR233      0.1957
    205  OH        12.8860   27.4160   45.1210 O.3   233  TYR233     -0.2866
@<TRIPOS>BOND
     1    90    89    2
     2    89    88    1
     3    87    88    1
     4   193   192   ar
     5   193   191   ar
     6   192   190   ar
     7    88    91    1
     8    70    68   ar
     9   191   189   ar
    10   190   188   ar
    11    91    93    1
    12    91    92    1
    13    68    69   ar
    14    68    67    1
    15    78    76   am
    16   155   153   ar
    17   155   154   ar
    18   167   166   ar
    19   189   188   ar
    20   188   187    1
    21    92    94    1
    22   153   151   ar
    23    67    66    1
    24    76    75    1
    25    76    77    2
    26   182   181    2
    27   168   166   ar
    28    75    72    1
    29   154   152   ar
    30   166   165    1
    31   179   180    1
    32   187   184    1
    33   197   196    2
    34   151   150   ar
    35   151   149   ar
    36   181   180    1
    37   181   183   am
    38    66    63    1
    39   184   183    1
    40   184   185    1
    41   150   148   ar
    42   152   149   ar
    43   194   185   am
    44   194   195    1
    45   200   202   ar
    46   200   199   ar
    47   165   164    1
    48    72    71    1
    49    72    73    1
    50   164   161    1
    51   149   147   ar
    52   196   195    1
    53   202   204   ar
    54   198   195    1
    55   198   199    1
    56   185   186    2
    57    74    73    2
    58    71    64   am
    59    65    64    2
    60    64    63    1
    61    63    62    1
    62   199   201   ar
    63    73    79   am
    64   148   147   ar
    65   163   162    2
    66   147   146    1
    67   160   161    1
    68   160   158   am
    69   161   162    1
    70   204   205    1
    71   204   203   ar
    72   145   144    2
    73   162   169   am
    74    62    53   am
    75    81    82    2
    76    81    80    1
    77    79    80    1
    78   201   203   ar
    79   101   100   ar
    80   102   100   ar
    81   157   158    1
    82   157   156    1
    83   100    99    1
    84   158   159    2
    85    54    53    2
    86   144   156   am
    87   144   143    1
    88    99    96    1
    89    53    52    1
    90    80    83    1
    91   146   143    1
    92    95    96    1
    93    96    97    1
    94   169   170    1
    95   141   140    1
    96   140   137    1
    97   175   176    2
    98   175   174    1
    99   143   142    1
   100   142   138   am
   101    83    84    1
   102    55    52    1
   103    55    56    1
   104   170   171    1
   105   171   172    2
   106   171   173   am
   107    52    51    1
   108   173   174    1
   109   174   177    1
   110    84    85    1
   111    84    86    1
   112    57    56    1
   113    57    58    1
   114    51    39   am
   115   137   136    1
   116   137   138    1
   117    97   103   am
   118    97    98    2
   119   136   131   am
   120   138   139    2
   121   103   104    1
   122    37    38    1
   123    39    40    2
   124    39    38    1
   125   130   129    1
   126   130   131    1
   127   130   133    1
   128    58    59    2
   129    38    41    1
   130   106   105    2
   131   131   132    2
   132   177   178    1
   133    60    59    1
   134   107   104    1
   135   104   105    1
   136    59    61    1
   137   134   133    1
   138   135   133    1
   139   105   108   am
   140    22    21    1
   141   178   113    1
   142    41    42    1
   143    19    21   ar
   144    19    17   ar
   145    42    43   ar
   146    42    44   ar
   147    21    20   ar
   148   108   109    1
   149     7     9   ar
   150     7     6   ar
   151    43    45   ar
   152    47    44   ar
   153    47    49   ar
   154     9    10   ar
   155    44    46   ar
   156   109   112    1
   157   109   110    1
   158    45    46   ar
   159    49    50   ar
   160    46    48   ar
   161   112   113    1
   162    17    16   ar
   163    50    48   ar
   164     6     5    1
   165     6     8   ar
   166    10     8   ar
   167     5     2    1
   168    20    18   ar
   169    34    36   ar
   170    34    32   ar
   171    36    35   ar
   172   110   111    2
   173   110   114   am
   174     1     2    1
   175   124   123    1
   176   124   125    1
   177   124   127    1
   178   128   127    1
   179    16    18   ar
   180    16    15    1
   181    32    31   ar
   182    32    30   ar
   183     2     3    1
   184    31    29   ar
   185   114   115    1
   186    35    33   ar
   187   125   126    2
   188    30    33   ar
   189    30    28   ar
   190    15    12    1
   191    29    28   ar
   192   115   118    1
   193   115   116    1
   194     3     4    2
   195    12    13    1
   196    12    11    1
   197   118   119    1
   198    28    27    1
   199    13    14    2
   200   116   117    2
   201    23    24    1
   202   119   120    1
   203   121   120   ar
   204    27    24    1
   205    24    25    1
   206   120   122   ar
   207    25    26    2
