@<TRIPOS>MOLECULE
tmp/2uumO00.pdb
 239 235 0 0 0
SMALL
GASTEIGER

@<TRIPOS>ATOM
      1  N         20.2500   48.5360   27.9450 N.3    59  VAL59      -0.1231
      2  CA        19.2750   48.2730   28.9780 C.3    59  VAL59       0.1692
      3  C         17.8540   48.5050   28.4580 C.2    59  VAL59       0.2592
      4  O         17.0370   47.6000   28.5640 O.2    59  VAL59      -0.2718
      5  CB        19.5190   49.0980   30.2420 C.3    59  VAL59       0.0266
      6  CG1       18.4750   48.7560   31.3360 C.3    59  VAL59       0.0020
      7  CG2       20.9550   48.9160   30.7480 C.3    59  VAL59       0.0020
      8  N         17.5670   49.6740   27.8730 N.am   60  TYR60      -0.1976
      9  CA        16.2540   49.9000   27.2820 C.3    60  TYR60       0.1639
     10  C         15.8260   48.8000   26.2790 C.2    60  TYR60       0.2290
     11  O         14.6940   48.4270   26.1890 O.2    60  TYR60      -0.2864
     12  CB        16.1420   51.2880   26.6460 C.3    60  TYR60       0.0560
     13  CG        16.6120   52.4490   27.4840 C.ar   60  TYR60      -0.0198
     14  CD1       16.4200   52.4920   28.8790 C.ar   60  TYR60      -0.0009
     15  CD2       17.2250   53.5400   26.8940 C.ar   60  TYR60      -0.0009
     16  CE1       16.8880   53.5980   29.6590 C.ar   60  TYR60       0.0417
     17  CE2       17.6680   54.6190   27.6650 C.ar   60  TYR60       0.0417
     18  CZ        17.5180   54.6420   29.0340 C.ar   60  TYR60       0.1957
     19  OH        17.9870   55.7430   29.7240 O.3    60  TYR60      -0.2866
     20  N         10.8560   49.6930   30.6080 N.3    66  THR66      -0.1218
     21  CA        11.4360   50.7570   31.3830 C.3    66  THR66       0.1862
     22  C         11.3500   52.0640   30.6380 C.2    66  THR66       0.2287
     23  O         11.5240   53.1120   31.2390 O.2    66  THR66      -0.2866
     24  CB        12.8780   50.4980   31.6640 C.3    66  THR66       0.1770
     25  OG1       13.5300   50.2090   30.4290 O.3    66  THR66      -0.2211
     26  CG2       13.0180   49.3330   32.5530 C.3    66  THR66       0.0375
     27  N          8.1930   57.0480   38.7080 N.3    72  PRO72      -0.2102
     28  CA         9.4360   57.7730   38.8000 C.3    72  PRO72       0.1504
     29  C         10.6360   56.8520   38.6960 C.2    72  PRO72       0.2576
     30  O         11.6920   57.2910   38.3080 O.2    72  PRO72      -0.2718
     31  CB         9.3480   58.4530   40.1800 C.3    72  PRO72       0.0282
     32  CG         7.9740   58.1280   40.7300 C.3    72  PRO72       0.0208
     33  CD         7.5630   56.8780   40.0270 C.3    72  PRO72       0.0893
     34  N         10.4630   55.5760   38.9990 N.am   73  ASN73      -0.1961
     35  CA        11.5520   54.6210   38.8920 C.3    73  ASN73       0.1819
     36  C         11.8840   54.1730   37.4850 C.2    73  ASN73       0.2621
     37  O         12.8090   53.4230   37.2990 O.2    73  ASN73      -0.2715
     38  CB        11.2740   53.4200   39.7830 C.3    73  ASN73       0.1195
     39  CG        10.0400   52.6370   39.3600 C.2    73  ASN73       0.2630
     40  OD1        9.0260   53.1890   38.9130 O.2    73  ASN73      -0.2716
     41  ND2       10.1180   51.3390   39.5300 N.am   73  ASN73      -0.0877
     42  N         11.1560   54.6380   36.4790 N.am   74  TYR74      -0.1960
     43  CA        11.3990   54.2270   35.0850 C.3    74  TYR74       0.1771
     44  C         11.9280   55.3420   34.1630 C.2    74  TYR74       0.2619
     45  O         11.9890   56.5090   34.5540 O.2    74  TYR74      -0.2715
     46  CB        10.1260   53.6880   34.4960 C.3    74  TYR74       0.0574
     47  CG         9.5750   52.4790   35.1810 C.ar   74  TYR74      -0.0198
     48  CD1       10.2400   51.2430   35.1380 C.ar   74  TYR74      -0.0009
     49  CD2        8.3680   52.5390   35.8460 C.ar   74  TYR74      -0.0009
     50  CE1        9.7000   50.0990   35.7630 C.ar   74  TYR74       0.0417
     51  CE2        7.8340   51.4010   36.4690 C.ar   74  TYR74       0.0417
     52  CZ         8.5030   50.1890   36.4130 C.ar   74  TYR74       0.1957
     53  OH         7.9840   49.0850   37.0360 O.3    74  TYR74      -0.2866
     54  N         12.2940   54.9850   32.9330 N.am   75  ALA75      -0.1977
     55  CA        12.8400   55.9360   31.9550 C.3    75  ALA75       0.1597
     56  C         11.8900   56.2450   30.7500 C.2    75  ALA75       0.2287
     57  O         12.2910   56.3250   29.5860 O.2    75  ALA75      -0.2864
     58  CB        14.2110   55.4700   31.4840 C.3    75  ALA75       0.0319
     59  N         13.3660   62.8930   32.3170 N.3    79  ARG79      -0.1231
     60  CA        13.8620   62.9150   33.6840 C.3    79  ARG79       0.1694
     61  C         14.5610   61.5910   33.9500 C.2    79  ARG79       0.2592
     62  O         15.7400   61.5530   34.3450 O.2    79  ARG79      -0.2718
     63  CB        12.7040   63.1540   34.6100 C.3    79  ARG79       0.0321
     64  CG        13.0310   63.4790   36.0470 C.3    79  ARG79       0.0489
     65  CD        11.8270   62.9000   36.8980 C.3    79  ARG79       0.2205
     66  NE        11.4110   61.5950   36.3200 N.pl3  79  ARG79      -0.0865
     67  CZ        11.5740   60.3870   36.8920 C.cat  79  ARG79       0.5346
     68  NH1       12.0810   60.3150   38.1440 N.pl3  79  ARG79       0.1354
     69  NH2       11.1890   59.2660   36.2130 N.pl3  79  ARG79       0.1354
     70  N         13.8260   60.5280   33.6260 N.am   80  GLY80      -0.1957
     71  CA        14.1580   59.1620   33.9420 C.3    80  GLY80       0.1869
     72  C         15.3290   58.6900   33.1520 C.2    80  GLY80       0.2309
     73  O         16.2490   58.0630   33.7070 O.2    80  GLY80      -0.2863
     74  N         18.3950   60.2680   34.7090 N.3    83  LYS83      -0.1231
     75  CA        18.7610   59.5110   35.9240 C.3    83  LYS83       0.1693
     76  C         19.5210   58.2660   35.4950 C.2    83  LYS83       0.2592
     77  O         20.6450   57.9670   35.9710 O.2    83  LYS83      -0.2718
     78  CB        17.5570   59.1060   36.7720 C.3    83  LYS83       0.0285
     79  CG        16.8380   60.2700   37.4250 C.3    83  LYS83       0.0035
     80  CD        17.5220   60.8650   38.6440 C.3    83  LYS83       0.0206
     81  CE        16.5980   61.8660   39.3380 C.3    83  LYS83       0.1093
     82  NZ        17.2570   62.6830   40.3850 N.3    83  LYS83      -0.1314
     83  N         18.9260   57.5620   34.5470 N.am   84  CYS84      -0.1970
     84  CA        19.5060   56.2950   34.1720 C.3    84  CYS84       0.1712
     85  C         20.9090   56.4550   33.5640 C.2    84  CYS84       0.2296
     86  O         21.8150   55.6650   33.8520 O.2    84  CYS84      -0.2864
     87  CB        18.5990   55.5380   33.2480 C.3    84  CYS84       0.0983
     88  SG        19.3250   54.0050   32.9630 S.3    84  CYS84      -0.0798
     89  N         22.8960   59.0460   34.1920 N.3    86  ARG86      -0.1231
     90  CA        23.6730   59.4600   35.3330 C.3    86  ARG86       0.1694
     91  C         24.2700   58.2830   36.1450 C.2    86  ARG86       0.2592
     92  O         25.4780   58.2510   36.3860 O.2    86  ARG86      -0.2718
     93  CB        22.7830   60.2970   36.2240 C.3    86  ARG86       0.0321
     94  CG        23.5680   60.9290   37.3150 C.3    86  ARG86       0.0489
     95  CD        22.6860   61.3270   38.4670 C.3    86  ARG86       0.2205
     96  NE        22.0600   60.1800   39.0730 N.pl3  86  ARG86      -0.0865
     97  CZ        21.1190   60.2850   39.9920 C.cat  86  ARG86       0.5346
     98  NH1       20.7380   61.4930   40.3750 N.pl3  86  ARG86       0.1354
     99  NH2       20.5700   59.2090   40.5220 N.pl3  86  ARG86       0.1354
    100  N         23.4060   57.3510   36.5740 N.am   87  ASP87      -0.1960
    101  CA        23.8140   56.1770   37.2990 C.3    87  ASP87       0.1840
    102  C         24.8370   55.3370   36.4850 C.2    87  ASP87       0.2621
    103  O         25.8420   54.8370   37.0280 O.2    87  ASP87      -0.2715
    104  CB        22.5870   55.3190   37.6340 C.3    87  ASP87       0.1450
    105  CG        21.5820   56.0270   38.5460 C.2    87  ASP87       0.3671
    106  OD1       21.7460   57.2360   38.8340 O.co2  87  ASP87      -0.2456
    107  OD2       20.6090   55.3550   38.9790 O.co2  87  ASP87      -0.2456
    108  N         24.5970   55.1530   35.1920 N.am   88  ILE88      -0.1977
    109  CA        25.4780   54.2660   34.4910 C.3    88  ILE88       0.1596
    110  C         26.8220   54.9380   34.4990 C.2    88  ILE88       0.2287
    111  O         27.8640   54.3050   34.7100 O.2    88  ILE88      -0.2864
    112  CB        24.9660   53.9420   33.1030 C.3    88  ILE88       0.0276
    113  CG1       23.7230   53.0430   33.2220 C.3    88  ILE88       0.0022
    114  CG2       26.0600   53.2360   32.2950 C.3    88  ILE88       0.0022
    115  CD1       22.9450   52.8610   31.9400 C.3    88  ILE88       0.0001
    116  N         28.0010   56.8690   36.7620 N.3    90  TYR90      -0.1227
    117  CA        28.5660   56.5760   38.0520 C.3    90  TYR90       0.1736
    118  C         29.2860   55.2180   38.0650 C.2    90  TYR90       0.2595
    119  O         30.4530   55.1300   38.4070 O.2    90  TYR90      -0.2718
    120  CB        27.5030   56.6410   39.1450 C.3    90  TYR90       0.0548
    121  CG        26.9430   58.0260   39.4780 C.ar   90  TYR90      -0.0200
    122  CD1       27.5660   59.2060   39.0470 C.ar   90  TYR90      -0.0009
    123  CD2       25.7920   58.1480   40.2690 C.ar   90  TYR90      -0.0009
    124  CE1       27.0350   60.4320   39.3680 C.ar   90  TYR90       0.0417
    125  CE2       25.2580   59.3830   40.6060 C.ar   90  TYR90       0.0417
    126  CZ        25.8770   60.5090   40.1470 C.ar   90  TYR90       0.1957
    127  OH        25.3250   61.7110   40.5040 O.3    90  TYR90      -0.2866
    128  N         28.6090   54.1660   37.6690 N.am   91  TYR91      -0.1976
    129  CA        29.2730   52.9060   37.5460 C.3    91  TYR91       0.1639
    130  C         30.5570   53.0330   36.7730 C.2    91  TYR91       0.2290
    131  O         31.6410   52.5920   37.2520 O.2    91  TYR91      -0.2864
    132  CB        28.3560   51.8590   36.9050 C.3    91  TYR91       0.0560
    133  CG        27.4520   51.2120   37.9440 C.ar   91  TYR91      -0.0198
    134  CD1       26.2170   51.7490   38.2320 C.ar   91  TYR91      -0.0009
    135  CD2       27.8690   50.1040   38.6760 C.ar   91  TYR91      -0.0009
    136  CE1       25.4290   51.1830   39.2030 C.ar   91  TYR91       0.0417
    137  CE2       27.0800   49.5320   39.6540 C.ar   91  TYR91       0.0417
    138  CZ        25.8730   50.0680   39.9120 C.ar   91  TYR91       0.1957
    139  OH        25.0520   49.4960   40.8630 O.3    91  TYR91      -0.2866
    140  N         32.4280   55.5530   36.1060 N.3    93  ARG93      -0.1231
    141  CA        33.4110   56.3820   36.7570 C.3    93  ARG93       0.1694
    142  C         34.1670   55.5810   37.8540 C.2    93  ARG93       0.2591
    143  O         35.4220   55.5640   37.9210 O.2    93  ARG93      -0.2718
    144  CB        32.7590   57.6580   37.2820 C.3    93  ARG93       0.0321
    145  CG        33.7270   58.5680   37.9760 C.3    93  ARG93       0.0489
    146  CD        33.2220   60.0040   38.0530 C.3    93  ARG93       0.2205
    147  NE        31.8870   60.1010   38.6470 N.pl3  93  ARG93      -0.0865
    148  CZ        31.6500   60.2160   39.9510 C.cat  93  ARG93       0.5346
    149  NH1       32.6600   60.2550   40.8220 N.pl3  93  ARG93       0.1354
    150  NH2       30.3900   60.2940   40.3730 N.pl3  93  ARG93       0.1354
    151  N         33.3820   54.8730   38.6730 N.am   94  MET94      -0.1979
    152  CA        33.9130   53.9450   39.6930 C.3    94  MET94       0.1605
    153  C         34.8330   52.9140   39.0560 C.2    94  MET94       0.2287
    154  O         35.9450   52.6960   39.5160 O.2    94  MET94      -0.2864
    155  CB        32.8070   53.2150   40.4630 C.3    94  MET94       0.0413
    156  CG        31.8530   54.1430   41.2500 C.3    94  MET94       0.0598
    157  SD        32.6900   55.2880   42.4080 S.3    94  MET94      -0.1393
    158  CE        31.7700   56.8150   42.0340 C.3    94  MET94       0.0692
    159  N         32.0810   54.3280   47.5480 N.3   110  TYR110     -0.1227
    160  CA        31.2020   55.3610   46.9540 C.3   110  TYR110      0.1736
    161  C         29.8970   54.8030   46.3980 C.2   110  TYR110      0.2595
    162  O         28.9010   55.5120   46.3270 O.2   110  TYR110     -0.2718
    163  CB        31.9280   56.2300   45.8930 C.3   110  TYR110      0.0548
    164  CG        33.2470   56.8140   46.3810 C.ar  110  TYR110     -0.0200
    165  CD1       33.3520   57.3650   47.6430 C.ar  110  TYR110     -0.0009
    166  CD2       34.3820   56.7970   45.5860 C.ar  110  TYR110     -0.0009
    167  CE1       34.5240   57.8750   48.0930 C.ar  110  TYR110      0.0417
    168  CE2       35.5810   57.3190   46.0470 C.ar  110  TYR110      0.0417
    169  CZ        35.6360   57.8590   47.2850 C.ar  110  TYR110      0.1957
    170  OH        36.8180   58.3640   47.7380 O.3   110  TYR110     -0.2866
    171  N         29.8870   53.5330   46.0190 N.am  111  LEU111     -0.1980
    172  CA        28.7360   52.9790   45.3070 C.3   111  LEU111      0.1596
    173  C         28.1430   51.7220   45.9210 C.2   111  LEU111      0.2287
    174  O         26.9330   51.6720   46.1370 O.2   111  LEU111     -0.2864
    175  CB        29.0680   52.7490   43.8360 C.3   111  LEU111      0.0297
    176  CG        27.9440   52.2510   42.9350 C.3   111  LEU111      0.0022
    177  CD1       28.1540   52.6610   41.4930 C.3   111  LEU111      0.0001
    178  CD2       27.8000   50.7720   42.9930 C.3   111  LEU111      0.0001
    179  N         23.8690   50.2070   48.3320 N.3   115  ILE115     -0.1245
    180  CA        23.2150   50.1020   47.0560 C.3   115  ILE115      0.1561
    181  C         21.8890   49.3190   47.2040 C.2   115  ILE115      0.2260
    182  O         20.8620   49.6890   46.6190 O.2   115  ILE115     -0.2867
    183  CB        24.1340   49.4760   45.9760 C.3   115  ILE115      0.0252
    184  CG1       23.6410   49.8210   44.5590 C.3   115  ILE115      0.0019
    185  CG2       24.2040   47.9570   46.1250 C.3   115  ILE115      0.0019
    186  CD1       23.4860   51.2880   44.3330 C.3   115  ILE115      0.0001
    187  N         18.9870   51.3610   48.4070 N.3   118  ILE118     -0.1245
    188  CA        18.5360   52.3250   47.4310 C.3   118  ILE118      0.1561
    189  C         17.6380   51.6560   46.4350 C.2   118  ILE118      0.2260
    190  O         16.5240   52.1330   46.2010 O.2   118  ILE118     -0.2867
    191  CB        19.7190   53.0250   46.7430 C.3   118  ILE118      0.0252
    192  CG1       20.2720   54.0590   47.6870 C.3   118  ILE118      0.0019
    193  CG2       19.3180   53.6430   45.4120 C.3   118  ILE118      0.0019
    194  CD1       21.7490   54.1160   47.5930 C.3   118  ILE118      0.0001
    195  N         13.8330   52.7930   46.0750 N.3   122  PHE122     -0.1241
    196  CA        13.3650   53.5280   44.9080 C.3   122  PHE122      0.1605
    197  C         12.8290   52.6430   43.8170 C.2   122  PHE122      0.2264
    198  O         12.4920   53.1330   42.7510 O.2   122  PHE122     -0.2867
    199  CB        14.4790   54.3860   44.3640 C.3   122  PHE122      0.0534
    200  CG        14.7150   55.5630   45.1650 C.ar  122  PHE122     -0.0203
    201  CD1       13.9710   56.6800   44.9480 C.ar  122  PHE122     -0.0042
    202  CD2       15.6440   55.5530   46.1900 C.ar  122  PHE122     -0.0042
    203  CE1       14.1540   57.8300   45.7280 C.ar  122  PHE122     -0.0003
    204  CE2       15.8560   56.7160   46.9860 C.ar  122  PHE122     -0.0003
    205  CZ        15.1040   57.8680   46.7410 C.ar  122  PHE122     -0.0000
    206  N         14.3590   50.3630   41.9230 N.3   124  LEU124     -0.1245
    207  CA        15.1810   50.1670   40.7820 C.3   124  LEU124      0.1561
    208  C         15.5600   48.7080   40.7390 C.2   124  LEU124      0.2260
    209  O         15.8370   48.1320   41.7780 O.2   124  LEU124     -0.2867
    210  CB        16.4060   51.0260   40.9500 C.3   124  LEU124      0.0270
    211  CG        16.0480   52.4900   41.2680 C.3   124  LEU124      0.0019
    212  CD1       17.2840   53.2720   41.5960 C.3   124  LEU124      0.0001
    213  CD2       15.2470   53.1950   40.1320 C.3   124  LEU124      0.0001
    214  N         18.6240   45.6600   35.6250 N.3   128  TRP128     -0.1227
    215  CA        18.8680   46.6770   34.6210 C.3   128  TRP128      0.1737
    216  C         20.3500   47.0460   34.6340 C.2   128  TRP128      0.2595
    217  O         21.0240   47.0530   33.5870 O.2   128  TRP128     -0.2718
    218  CB        18.0590   47.9180   34.8850 C.3   128  TRP128      0.0564
    219  CG        16.6310   47.7280   35.0600 C.ar  128  TRP128      0.0003
    220  CD1       15.8770   46.7050   34.5920 C.ar  128  TRP128      0.0946
    221  CD2       15.7300   48.6080   35.7300 C.ar  128  TRP128      0.0152
    222  NE1       14.5580   46.8590   34.9600 N.ar  128  TRP128     -0.2442
    223  CE2       14.4390   48.0310   35.6510 C.ar  128  TRP128      0.0810
    224  CE3       15.8900   49.8160   36.4120 C.ar  128  TRP128      0.0012
    225  CZ2       13.3190   48.6220   36.2090 C.ar  128  TRP128      0.0191
    226  CZ3       14.7860   50.4130   36.9580 C.ar  128  TRP128      0.0001
    227  CH2       13.5050   49.8090   36.8620 C.ar  128  TRP128      0.0015
    228  N         20.8840   47.3490   35.8120 N.am  129  TYR129     -0.1976
    229  CA        22.2900   47.6930   35.8850 C.3   129  TYR129      0.1639
    230  C         23.2080   46.5710   35.4200 C.2   129  TYR129      0.2290
    231  O         24.2640   46.8570   34.7920 O.2   129  TYR129     -0.2864
    232  CB        22.6610   48.1490   37.2720 C.3   129  TYR129      0.0560
    233  CG        21.9430   49.4110   37.6800 C.ar  129  TYR129     -0.0198
    234  CD1       22.4240   50.6450   37.3000 C.ar  129  TYR129     -0.0009
    235  CD2       20.7600   49.3520   38.4330 C.ar  129  TYR129     -0.0009
    236  CE1       21.7700   51.7590   37.6510 C.ar  129  TYR129      0.0417
    237  CE2       20.0970   50.4800   38.7840 C.ar  129  TYR129      0.0417
    238  CZ        20.6140   51.6760   38.3950 C.ar  129  TYR129      0.1957
    239  OH        19.9950   52.8310   38.7430 O.3   129  TYR129     -0.2866
@<TRIPOS>BOND
     1    11    10    2
     2    10     9    1
     3    12     9    1
     4    12    13    1
     5    15    13   ar
     6    15    17   ar
     7     9     8    1
     8    13    14   ar
     9    17    18   ar
    10     8     3   am
    11     1     2    1
    12     3     4    2
    13     3     2    1
    14    14    16   ar
    15     2     5    1
    16    18    16   ar
    17    18    19    1
    18    57    56    2
    19     5     7    1
    20     5     6    1
    21    25    24    1
    22    20    21    1
    23    22    23    2
    24    22    21    1
    25    56    55    1
    26    21    24    1
    27    58    55    1
    28    24    26    1
    29   115   113    1
    30    55    54    1
    31   114   112    1
    32    59    60    1
    33    54    44   am
    34    88    87    1
    35   112   113    1
    36   112   109    1
    37    72    73    2
    38    72    71    1
    39    87    84    1
    40    85    86    2
    41    85    84    1
    42   217   216    2
    43    70    71    1
    44    70    61   am
    45    60    61    1
    46    60    63    1
    47    61    62    2
    48    44    45    2
    49    44    43    1
    50    84    83    1
    51    89    90    1
    52   109   110    1
    53   109   108    1
    54    46    43    1
    55    46    47    1
    56   110   111    2
    57    83    76   am
    58   220   222   ar
    59   220   219   ar
    60    63    64    1
    61   215   216    1
    62   215   218    1
    63   215   214    1
    64   216   228   am
    65    74    75    1
    66   231   230    2
    67   218   219    1
    68   222   223   ar
    69   219   221   ar
    70    43    42    1
    71    48    47   ar
    72    48    50   ar
    73    47    49   ar
    74   108   102   am
    75    90    91    1
    76    90    93    1
    77   230   229    1
    78    76    75    1
    79    76    77    2
    80   223   221   ar
    81   223   225   ar
    82   221   224   ar
    83    50    52   ar
    84   228   229    1
    85    49    51   ar
    86   229   232    1
    87    75    78    1
    88    64    65    1
    89   140   141    1
    90    91    92    2
    91    91   100   am
    92   225   227   ar
    93    69    67    1
    94    93    94    1
    95    66    67    2
    96    66    65    1
    97   224   226   ar
    98    52    51   ar
    99    52    53    1
   100    42    36   am
   101   102   103    2
   102   102   101    1
   103   100   101    1
   104   141   144    1
   105   141   142    1
   106   116   117    1
   107    78    79    1
   108   130   131    2
   109   130   129    1
   110   227   226   ar
   111    67    68    1
   112   132   129    1
   113   132   133    1
   114   232   233    1
   115   144   145    1
   116   101   104    1
   117    37    36    2
   118   234   236   ar
   119   234   233   ar
   120    94    95    1
   121    79    80    1
   122    36    35    1
   123   129   128    1
   124   104   105    1
   125   236   238   ar
   126   128   118   am
   127   233   235   ar
   128   142   143    2
   129   142   151   am
   130   133   134   ar
   131   133   135   ar
   132   145   146    1
   133   117   118    1
   134   117   120    1
   135   146   147    1
   136   118   119    2
   137   134   136   ar
   138    30    29    2
   139   238   239    1
   140   238   237   ar
   141   235   237   ar
   142    95    96    1
   143   105   106   ar
   144   105   107   ar
   145    80    81    1
   146   147   148    2
   147   151   152    1
   148   135   137   ar
   149    29    28    1
   150    29    34   am
   151    27    28    1
   152    27    33    1
   153    28    31    1
   154    35    34    1
   155    35    38    1
   156    40    39    2
   157   122   124   ar
   158   122   121   ar
   159   153   154    2
   160   153   152    1
   161    96    97    2
   162   120   121    1
   163   136   138   ar
   164    81    82    1
   165    39    41   am
   166    39    38    1
   167   124   126   ar
   168   121   123   ar
   169   137   138   ar
   170   152   155    1
   171   138   139    1
   172   148   150    1
   173   148   149    1
   174    97    98    1
   175    97    99    1
   176    33    32    1
   177   213   211    1
   178   126   127    1
   179   126   125   ar
   180    31    32    1
   181   123   125   ar
   182   155   156    1
   183   208   207    1
   184   208   209    2
   185   207   210    1
   186   207   206    1
   187   210   211    1
   188   156   157    1
   189   211   212    1
   190   177   176    1
   191   158   157    1
   192   198   197    2
   193   176   178    1
   194   176   175    1
   195   197   196    1
   196   175   172    1
   197   186   184    1
   198   199   196    1
   199   199   200    1
   200   184   183    1
   201   196   195    1
   202   201   200   ar
   203   201   203   ar
   204   200   202   ar
   205   172   173    1
   206   172   171    1
   207   193   191    1
   208   166   168   ar
   209   166   164   ar
   210   203   205   ar
   211   163   164    1
   212   163   160    1
   213   173   174    2
   214   183   185    1
   215   183   180    1
   216   171   161   am
   217   168   169   ar
   218   202   204   ar
   219   190   189    2
   220   162   161    2
   221   164   165   ar
   222   161   160    1
   223   189   188    1
   224   182   181    2
   225   205   204   ar
   226   191   188    1
   227   191   192    1
   228   160   159    1
   229   180   181    1
   230   180   179    1
   231   169   170    1
   232   169   167   ar
   233   188   187    1
   234   194   192    1
   235   165   167   ar
