@<TRIPOS>MOLECULE
tmp/2uunM00.pdb
 246 242 0 0 0
SMALL
GASTEIGER

@<TRIPOS>ATOM
      1  N         36.2090   36.9880  150.9200 N.3    59  VAL59      -0.1231
      2  CA        37.0130   37.3670  152.0950 C.3    59  VAL59       0.1692
      3  C         38.4640   37.2960  151.6740 C.2    59  VAL59       0.2592
      4  O         39.2120   38.2340  151.8500 O.2    59  VAL59      -0.2718
      5  CB        36.7030   36.4620  153.3400 C.3    59  VAL59       0.0266
      6  CG1       37.7230   36.6650  154.4660 C.3    59  VAL59       0.0020
      7  CG2       35.2860   36.7070  153.8330 C.3    59  VAL59       0.0020
      8  N         38.8380   36.1890  151.0700 N.am   60  TYR60      -0.1976
      9  CA        40.1740   36.0600  150.5190 C.3    60  TYR60       0.1639
     10  C         40.5470   37.1530  149.4970 C.2    60  TYR60       0.2290
     11  O         41.7060   37.4980  149.3600 O.2    60  TYR60      -0.2864
     12  CB        40.3550   34.6860  149.8570 C.3    60  TYR60       0.0560
     13  CG        39.9770   33.4920  150.6980 C.ar   60  TYR60      -0.0198
     14  CD1       40.1130   33.4930  152.0960 C.ar   60  TYR60      -0.0009
     15  CD2       39.5350   32.3520  150.0870 C.ar   60  TYR60      -0.0009
     16  CE1       39.7740   32.3810  152.8570 C.ar   60  TYR60       0.0417
     17  CE2       39.1940   31.2140  150.8300 C.ar   60  TYR60       0.0417
     18  CZ        39.3070   31.2130  152.2110 C.ar   60  TYR60       0.1957
     19  OH        38.9510   30.0360  152.8770 O.3    60  TYR60      -0.2866
     20  N         45.3490   36.7970  154.1550 N.3    66  THR66      -0.1218
     21  CA        44.7970   35.5870  154.8010 C.3    66  THR66       0.1862
     22  C         45.0680   34.2270  154.0630 C.2    66  THR66       0.2287
     23  O         44.9250   33.1440  154.6130 O.2    66  THR66      -0.2866
     24  CB        43.2740   35.7160  155.0670 C.3    66  THR66       0.1770
     25  OG1       42.6320   35.9530  153.8220 O.3    66  THR66      -0.2211
     26  CG2       42.9760   36.8110  156.0200 C.3    66  THR66       0.0375
     27  N         48.2990   29.4550  162.2850 N.3    72  PRO72      -0.2102
     28  CA        47.0550   28.7000  162.3540 C.3    72  PRO72       0.1504
     29  C         45.7870   29.5250  162.1660 C.2    72  PRO72       0.2576
     30  O         44.7670   29.0020  161.7410 O.2    72  PRO72      -0.2718
     31  CB        47.1090   28.0940  163.7430 C.3    72  PRO72       0.0282
     32  CG        48.4860   28.5250  164.3280 C.3    72  PRO72       0.0208
     33  CD        48.8610   29.7220  163.6150 C.3    72  PRO72       0.0893
     34  N         45.8690   30.8090  162.4840 N.am   73  ASN73      -0.1961
     35  CA        44.7300   31.6970  162.3620 C.3    73  ASN73       0.1819
     36  C         44.4080   32.0890  160.8990 C.2    73  ASN73       0.2621
     37  O         43.3800   32.7630  160.5910 O.2    73  ASN73      -0.2715
     38  CB        44.9040   32.9240  163.2650 C.3    73  ASN73       0.1195
     39  CG        46.1440   33.7060  162.9620 C.2    73  ASN73       0.2630
     40  OD1       47.2140   33.1600  162.6770 O.2    73  ASN73      -0.2716
     41  ND2       46.0230   34.9980  163.0640 N.am   73  ASN73      -0.0877
     42  N         45.2630   31.6440  159.9880 N.am   74  TYR74      -0.1960
     43  CA        45.1000   32.0180  158.5910 C.3    74  TYR74       0.1771
     44  C         44.8140   30.8300  157.6570 C.2    74  TYR74       0.2619
     45  O         45.0070   29.6650  157.9880 O.2    74  TYR74      -0.2715
     46  CB        46.3310   32.7530  158.1000 C.3    74  TYR74       0.0574
     47  CG        46.6960   34.0050  158.8540 C.ar   74  TYR74      -0.0198
     48  CD1       45.9500   35.1560  158.7280 C.ar   74  TYR74      -0.0009
     49  CD2       47.8310   34.0510  159.6530 C.ar   74  TYR74      -0.0009
     50  CE1       46.3070   36.3160  159.3810 C.ar   74  TYR74       0.0417
     51  CE2       48.2040   35.2200  160.3100 C.ar   74  TYR74       0.0417
     52  CZ        47.4320   36.3480  160.1640 C.ar   74  TYR74       0.1957
     53  OH        47.7480   37.5390  160.8010 O.3    74  TYR74      -0.2866
     54  N         44.3770   31.1410  156.4540 N.am   75  ALA75      -0.1977
     55  CA        43.9660   30.1240  155.5360 C.3    75  ALA75       0.1597
     56  C         44.9670   29.9350  154.3960 C.2    75  ALA75       0.2287
     57  O         44.5890   29.7600  153.2510 O.2    75  ALA75      -0.2864
     58  CB        42.5750   30.4410  155.0150 C.3    75  ALA75       0.0319
     59  N         43.8540   23.0830  155.7650 N.3    79  ARG79      -0.1231
     60  CA        43.3500   23.0850  157.1430 C.3    79  ARG79       0.1694
     61  C         42.5790   24.3610  157.4710 C.2    79  ARG79       0.2592
     62  O         41.4260   24.2820  157.9110 O.2    79  ARG79      -0.2718
     63  CB        44.4980   22.9780  158.0980 C.3    79  ARG79       0.0321
     64  CG        44.1220   22.8470  159.5630 C.3    79  ARG79       0.0489
     65  CD        45.2790   23.4260  160.4510 C.3    79  ARG79       0.2205
     66  NE        45.7440   24.7130  159.8720 N.pl3  79  ARG79      -0.0865
     67  CZ        45.4460   25.9310  160.3540 C.cat  79  ARG79       0.5346
     68  NH1       44.7460   26.0830  161.4970 N.pl3  79  ARG79       0.1354
     69  NH2       45.8850   27.0040  159.7070 N.pl3  79  ARG79       0.1354
     70  N         43.2260   25.5240  157.2470 N.am   80  GLY80      -0.1957
     71  CA        42.6780   26.8490  157.5510 C.3    80  GLY80       0.1869
     72  C         41.5610   27.1920  156.6000 C.2    80  GLY80       0.2309
     73  O         40.4890   27.6460  157.0170 O.2    80  GLY80      -0.2863
     74  N         38.6260   25.4720  157.9800 N.3    83  LYS83      -0.1231
     75  CA        38.0990   26.1940  159.1690 C.3    83  LYS83       0.1693
     76  C         37.2610   27.3480  158.6700 C.2    83  LYS83       0.2592
     77  O         36.0940   27.4920  159.0530 O.2    83  LYS83      -0.2718
     78  CB        39.2140   26.7070  160.1120 C.3    83  LYS83       0.0285
     79  CG        40.0840   25.6020  160.7360 C.3    83  LYS83       0.0035
     80  CD        39.5490   25.1120  162.0600 C.3    83  LYS83       0.0206
     81  CE        40.2430   23.8530  162.4700 C.3    83  LYS83       0.1093
     82  NZ        39.7620   23.2760  163.7480 N.3    83  LYS83      -0.1314
     83  N         37.8390   28.1210  157.7680 N.am   84  CYS84      -0.1970
     84  CA        37.1850   29.3170  157.3440 C.3    84  CYS84       0.1712
     85  C         35.7960   29.0450  156.7530 C.2    84  CYS84       0.2296
     86  O         34.8240   29.7550  157.0670 O.2    84  CYS84      -0.2864
     87  CB        38.0200   30.0460  156.3220 C.3    84  CYS84       0.0983
     88  SG        37.4040   31.6500  156.1120 S.3    84  CYS84      -0.0798
     89  N         33.8760   26.2280  157.1650 N.3    86  ARG86      -0.1231
     90  CA        33.0980   25.8200  158.3200 C.3    86  ARG86       0.1694
     91  C         32.4190   27.0210  159.0590 C.2    86  ARG86       0.2592
     92  O         31.1940   27.0160  159.2840 O.2    86  ARG86      -0.2718
     93  CB        33.9920   25.0370  159.2770 C.3    86  ARG86       0.0321
     94  CG        33.2160   24.3600  160.3740 C.3    86  ARG86       0.0489
     95  CD        34.0870   24.0920  161.5560 C.3    86  ARG86       0.2205
     96  NE        34.7540   25.2860  162.0750 N.pl3  86  ARG86      -0.0865
     97  CZ        35.6010   25.2620  163.0970 C.cat  86  ARG86       0.5346
     98  NH1       35.8490   24.1350  163.7160 N.pl3  86  ARG86       0.1354
     99  NH2       36.1730   26.3530  163.5280 N.pl3  86  ARG86       0.1354
    100  N         33.2220   28.0390  159.4090 N.am   87  ASP87      -0.1960
    101  CA        32.7620   29.1610  160.2160 C.3    87  ASP87       0.1840
    102  C         31.7120   29.9070  159.4930 C.2    87  ASP87       0.2621
    103  O         30.6700   30.1460  160.0680 O.2    87  ASP87      -0.2715
    104  CB        33.8920   30.1090  160.5720 C.3    87  ASP87       0.1450
    105  CG        34.8510   29.5240  161.5620 C.2    87  ASP87       0.3671
    106  OD1       34.6680   28.3390  161.8720 O.co2  87  ASP87      -0.2456
    107  OD2       35.7670   30.2390  162.0420 O.co2  87  ASP87      -0.2456
    108  N         31.9720   30.2690  158.2400 N.am   88  ILE88      -0.1977
    109  CA        30.9760   30.9560  157.4180 C.3    88  ILE88       0.1596
    110  C         29.7180   30.0830  157.3310 C.2    88  ILE88       0.2287
    111  O         28.6110   30.5600  157.4190 O.2    88  ILE88      -0.2864
    112  CB        31.5310   31.2920  156.0100 C.3    88  ILE88       0.0276
    113  CG1       32.7560   32.2140  156.1210 C.3    88  ILE88       0.0022
    114  CG2       30.4310   31.8670  155.1060 C.3    88  ILE88       0.0022
    115  CD1       33.4480   32.5600  154.8150 C.3    88  ILE88       0.0001
    116  N         28.7380   28.2310  159.5570 N.3    90  TYR90      -0.1227
    117  CA        28.0930   28.3880  160.8640 C.3    90  TYR90       0.1736
    118  C         27.2450   29.6040  160.8540 C.2    90  TYR90       0.2595
    119  O         26.0610   29.5020  161.1390 O.2    90  TYR90      -0.2718
    120  CB        29.0850   28.4120  162.0200 C.3    90  TYR90       0.0548
    121  CG        29.6700   27.0400  162.3450 C.ar   90  TYR90      -0.0200
    122  CD1       29.1330   25.8770  161.8210 C.ar   90  TYR90      -0.0009
    123  CD2       30.7630   26.9140  163.1870 C.ar   90  TYR90      -0.0009
    124  CE1       29.6690   24.6620  162.1050 C.ar   90  TYR90       0.0417
    125  CE2       31.3210   25.6890  163.4750 C.ar   90  TYR90       0.0417
    126  CZ        30.7620   24.5540  162.9290 C.ar   90  TYR90       0.1957
    127  OH        31.2680   23.2960  163.2210 O.3    90  TYR90      -0.2866
    128  N         27.8160   30.7510  160.4830 N.am   91  TYR91      -0.1976
    129  CA        27.0250   31.9840  160.3180 C.3    91  TYR91       0.1639
    130  C         25.7750   31.7590  159.4970 C.2    91  TYR91       0.2290
    131  O         24.7000   32.0220  159.9540 O.2    91  TYR91      -0.2864
    132  CB        27.8730   33.1220  159.7510 C.3    91  TYR91       0.0560
    133  CG        28.6890   33.7950  160.8130 C.ar   91  TYR91      -0.0198
    134  CD1       29.9300   33.2980  161.1850 C.ar   91  TYR91      -0.0009
    135  CD2       28.2070   34.9180  161.4750 C.ar   91  TYR91      -0.0009
    136  CE1       30.6810   33.9130  162.1810 C.ar   91  TYR91       0.0417
    137  CE2       28.9450   35.5530  162.4750 C.ar   91  TYR91       0.0417
    138  CZ        30.1830   35.0510  162.8270 C.ar   91  TYR91       0.1957
    139  OH        30.9130   35.6800  163.8030 O.3    91  TYR91      -0.2866
    140  N         24.1960   29.1050  158.7240 N.3    93  ARG93      -0.1231
    141  CA        23.2670   28.1670  159.3120 C.3    93  ARG93       0.1694
    142  C         22.4440   28.8810  160.3890 C.2    93  ARG93       0.2591
    143  O         21.2160   28.8110  160.3900 O.2    93  ARG93      -0.2718
    144  CB        23.9790   26.9050  159.8330 C.3    93  ARG93       0.0321
    145  CG        23.0230   25.8850  160.4460 C.3    93  ARG93       0.0489
    146  CD        23.6890   24.5200  160.5660 C.3    93  ARG93       0.2205
    147  NE        24.9610   24.4940  161.2950 N.pl3  93  ARG93      -0.0865
    148  CZ        25.0440   24.4410  162.6200 C.cat  93  ARG93       0.5346
    149  NH1       23.9560   24.4370  163.3860 N.pl3  93  ARG93       0.1354
    150  NH2       26.2230   24.4060  163.1900 N.pl3  93  ARG93       0.1354
    151  N         23.1190   29.6080  161.2730 N.am   94  MET94      -0.1979
    152  CA        22.4300   30.4250  162.2800 C.3    94  MET94       0.1605
    153  C         21.3720   31.3810  161.6800 C.2    94  MET94       0.2287
    154  O         20.2670   31.5090  162.2110 O.2    94  MET94      -0.2864
    155  CB        23.4300   31.1960  163.1380 C.3    94  MET94       0.0413
    156  CG        24.4170   30.3050  163.8540 C.3    94  MET94       0.0598
    157  SD        23.6760   29.2280  165.1690 S.3    94  MET94      -0.1393
    158  CE        24.6690   27.7540  164.8680 C.3    94  MET94       0.0692
    159  N         23.9810   30.1090  170.1730 N.3   110  TYR110     -0.1227
    160  CA        24.9630   29.2120  169.6200 C.3   110  TYR110      0.1736
    161  C         26.2300   29.9050  169.1170 C.2   110  TYR110      0.2595
    162  O         27.3130   29.3090  169.1530 O.2   110  TYR110     -0.2718
    163  CB        24.3350   28.4000  168.4950 C.3   110  TYR110      0.0548
    164  CG        23.1060   27.6530  168.9410 C.ar  110  TYR110     -0.0200
    165  CD1       23.0280   27.1210  170.2450 C.ar  110  TYR110     -0.0009
    166  CD2       22.0180   27.4900  168.0750 C.ar  110  TYR110     -0.0009
    167  CE1       21.9000   26.4490  170.6690 C.ar  110  TYR110      0.0417
    168  CE2       20.8770   26.8130  168.4930 C.ar  110  TYR110      0.0417
    169  CZ        20.8000   26.2770  169.7920 C.ar  110  TYR110      0.1957
    170  OH        19.6440   25.5680  170.2290 O.3   110  TYR110     -0.2866
    171  N         26.1110   31.1430  168.6390 N.am  111  LEU111     -0.1980
    172  CA        27.2530   31.8270  168.0380 C.3   111  LEU111      0.1596
    173  C         27.6800   33.0960  168.7530 C.2   111  LEU111      0.2287
    174  O         28.8810   33.2220  169.0550 O.2   111  LEU111     -0.2864
    175  CB        26.9920   32.1200  166.5650 C.3   111  LEU111      0.0297
    176  CG        28.0810   32.6380  165.6470 C.3   111  LEU111      0.0022
    177  CD1       27.7530   32.1720  164.2620 C.3   111  LEU111      0.0001
    178  CD2       28.1100   34.1520  165.7020 C.3   111  LEU111      0.0001
    179  N         31.6600   34.9980  171.3090 N.3   115  ILE115     -0.1245
    180  CA        32.4140   35.1650  170.0830 C.3   115  ILE115      0.1561
    181  C         33.6580   36.0250  170.3150 C.2   115  ILE115      0.2260
    182  O         34.7350   35.6580  169.8750 O.2   115  ILE115     -0.2867
    183  CB        31.5230   35.6980  168.8880 C.3   115  ILE115      0.0252
    184  CG1       32.1380   35.3350  167.5240 C.3   115  ILE115      0.0019
    185  CG2       31.2570   37.2250  168.9630 C.3   115  ILE115      0.0019
    186  CD1       32.4230   33.8510  167.3580 C.3   115  ILE115      0.0001
    187  N         36.5750   34.0640  171.6790 N.3   118  VAL118     -0.1231
    188  CA        37.1240   33.1900  170.6560 C.3   118  VAL118      0.1692
    189  C         38.0200   33.9840  169.6820 C.2   118  VAL118      0.2592
    190  O         39.2100   33.6770  169.5170 O.2   118  VAL118     -0.2718
    191  CB        36.0130   32.4120  169.9350 C.3   118  VAL118      0.0266
    192  CG1       36.5180   31.8430  168.6220 C.3   118  VAL118      0.0020
    193  CG2       35.3730   31.3110  170.8980 C.3   118  VAL118      0.0020
    194  N         37.4790   35.0320  169.0760 N.am  119  ASN119     -0.1974
    195  CA        38.2530   35.8210  168.1210 C.3   119  ASN119      0.1688
    196  C         39.4820   36.4590  168.7330 C.2   119  ASN119      0.2292
    197  O         40.5100   36.5750  168.0740 O.2   119  ASN119     -0.2864
    198  CB        37.4040   36.8970  167.4430 C.3   119  ASN119      0.1181
    199  CG        36.2850   36.3320  166.6260 C.2   119  ASN119      0.2629
    200  OD1       36.2600   35.1520  166.2870 O.2   119  ASN119     -0.2716
    201  ND2       35.3290   37.1690  166.3180 N.am  119  ASN119     -0.0877
    202  N         41.9770   33.3110  169.4690 N.3   122  PHE122     -0.1241
    203  CA        42.5280   32.6120  168.3160 C.3   122  PHE122      0.1605
    204  C         43.0670   33.5030  167.2160 C.2   122  PHE122      0.2264
    205  O         43.5030   33.0410  166.1720 O.2   122  PHE122     -0.2867
    206  CB        41.5000   31.6490  167.7710 C.3   122  PHE122      0.0534
    207  CG        41.3950   30.4050  168.5710 C.ar  122  PHE122     -0.0203
    208  CD1       42.1840   29.3070  168.2470 C.ar  122  PHE122     -0.0042
    209  CD2       40.5180   30.3470  169.6600 C.ar  122  PHE122     -0.0042
    210  CE1       42.1130   28.1590  168.9550 C.ar  122  PHE122     -0.0003
    211  CE2       40.4210   29.2070  170.3900 C.ar  122  PHE122     -0.0003
    212  CZ        41.2200   28.0860  170.0440 C.ar  122  PHE122     -0.0000
    213  N         41.4560   35.8040  165.2700 N.3   124  LEU124     -0.1245
    214  CA        40.6800   35.8340  164.0600 C.3   124  LEU124      0.1561
    215  C         40.0870   37.2220  163.9680 C.2   124  LEU124      0.2260
    216  O         39.7210   37.7770  164.9880 O.2   124  LEU124     -0.2867
    217  CB        39.5820   34.7880  164.1540 C.3   124  LEU124      0.0270
    218  CG        40.0920   33.3970  164.5120 C.3   124  LEU124      0.0019
    219  CD1       38.8990   32.5360  164.7530 C.3   124  LEU124      0.0001
    220  CD2       40.9500   32.8450  163.4220 C.3   124  LEU124      0.0001
    221  N         37.0110   40.1090  158.7870 N.3   128  TRP128     -0.1227
    222  CA        36.9070   39.0060  157.7930 C.3   128  TRP128      0.1737
    223  C         35.4960   38.5160  157.7820 C.2   128  TRP128      0.2595
    224  O         34.9640   38.3180  156.7180 O.2   128  TRP128     -0.2718
    225  CB        37.8020   37.7980  158.0900 C.3   128  TRP128      0.0564
    226  CG        39.2330   38.0980  158.3310 C.ar  128  TRP128      0.0003
    227  CD1       39.9290   39.1840  157.8710 C.ar  128  TRP128      0.0946
    228  CD2       40.1680   37.3050  159.0870 C.ar  128  TRP128      0.0152
    229  NE1       41.2360   39.1160  158.2970 N.ar  128  TRP128     -0.2442
    230  CE2       41.4020   37.9830  159.0540 C.ar  128  TRP128      0.0810
    231  CE3       40.0830   36.0780  159.7720 C.ar  128  TRP128      0.0012
    232  CZ2       42.5400   37.4880  159.6900 C.ar  128  TRP128      0.0191
    233  CZ3       41.2140   35.5670  160.3930 C.ar  128  TRP128      0.0001
    234  CH2       42.4250   36.2790  160.3640 C.ar  128  TRP128      0.0015
    235  N         34.8860   38.3280  158.9500 N.am  129  TYR129     -0.1976
    236  CA        33.5880   37.7250  158.9620 C.3   129  TYR129      0.1639
    237  C         32.5650   38.6840  158.4830 C.2   129  TYR129      0.2290
    238  O         31.5790   38.2890  157.8690 O.2   129  TYR129     -0.2864
    239  CB        33.2450   37.1990  160.3240 C.3   129  TYR129      0.0560
    240  CG        34.0600   36.0040  160.7460 C.ar  129  TYR129     -0.0198
    241  CD1       33.7060   34.7280  160.3520 C.ar  129  TYR129     -0.0009
    242  CD2       35.1760   36.1500  161.5530 C.ar  129  TYR129     -0.0009
    243  CE1       34.4220   33.6500  160.7430 C.ar  129  TYR129      0.0417
    244  CE2       35.8900   35.0740  161.9490 C.ar  129  TYR129      0.0417
    245  CZ        35.5020   33.8140  161.5380 C.ar  129  TYR129      0.1957
    246  OH        36.2060   32.7110  161.9200 O.3   129  TYR129     -0.2866
@<TRIPOS>BOND
     1    11    10    2
     2    10     9    1
     3    12     9    1
     4    12    13    1
     5    15    13   ar
     6    15    17   ar
     7     9     8    1
     8    13    14   ar
     9    17    18   ar
    10     1     2    1
    11     8     3   am
    12     3     4    2
    13     3     2    1
    14     2     5    1
    15    14    16   ar
    16    18    16   ar
    17    18    19    1
    18    57    56    2
    19     5     7    1
    20     5     6    1
    21    25    24    1
    22    22    23    2
    23    22    21    1
    24    20    21    1
    25    56    55    1
    26    21    24    1
    27   115   113    1
    28    58    55    1
    29    24    26    1
    30   114   112    1
    31    55    54    1
    32    59    60    1
    33   112   113    1
    34   112   109    1
    35    88    87    1
    36    87    84    1
    37    54    44   am
    38    72    73    2
    39    72    71    1
    40   224   223    2
    41    85    86    2
    42    85    84    1
    43    60    61    1
    44    60    63    1
    45    89    90    1
    46    70    61   am
    47    70    71    1
    48   110   109    1
    49   110   111    2
    50    84    83    1
    51   109   108    1
    52    61    62    2
    53    44    45    2
    54    44    43    1
    55    83    76   am
    56   223   222    1
    57   223   235   am
    58   222   225    1
    59   222   221    1
    60   238   237    2
    61   227   229   ar
    62   227   226   ar
    63    74    75    1
    64   225   226    1
    65    63    64    1
    66    46    43    1
    67    46    47    1
    68   108   102   am
    69   229   230   ar
    70    90    91    1
    71    90    93    1
    72   226   228   ar
    73   237   236    1
    74    43    42    1
    75    76    77    2
    76    76    75    1
    77   140   141    1
    78    48    47   ar
    79    48    50   ar
    80    47    49   ar
    81   235   236    1
    82   236   239    1
    83   230   228   ar
    84   230   232   ar
    85    91    92    2
    86    91   100   am
    87   228   231   ar
    88    75    78    1
    89    93    94    1
    90   141   144    1
    91   141   142    1
    92    50    52   ar
    93   100   101    1
    94   102   103    2
    95   102   101    1
    96   130   131    2
    97   130   129    1
    98   116   117    1
    99    64    65    1
   100    49    51   ar
   101   232   234   ar
   102    69    67    1
   103   132   129    1
   104   132   133    1
   105   231   233   ar
   106   144   145    1
   107    66    67    2
   108    66    65    1
   109    42    36   am
   110    78    79    1
   111    52    51   ar
   112    52    53    1
   113   101   104    1
   114   129   128    1
   115   239   240    1
   116   241   243   ar
   117   241   240   ar
   118    67    68    1
   119   234   233   ar
   120    94    95    1
   121   142   143    2
   122   142   151   am
   123   145   146    1
   124   128   118   am
   125   146   147    1
   126   104   105    1
   127    37    36    2
   128    79    80    1
   129   243   245   ar
   130   240   242   ar
   131   133   134   ar
   132   133   135   ar
   133   118   117    1
   134   118   119    2
   135   117   120    1
   136    36    35    1
   137   134   136   ar
   138   151   152    1
   139   147   148    2
   140   135   137   ar
   141   245   246    1
   142   245   244   ar
   143   242   244   ar
   144    95    96    1
   145   105   106   ar
   146   105   107   ar
   147   153   154    2
   148   153   152    1
   149    30    29    2
   150   122   124   ar
   151   122   121   ar
   152   120   121    1
   153    80    81    1
   154    96    97    2
   155   124   126   ar
   156    29    28    1
   157    29    34   am
   158   136   138   ar
   159   152   155    1
   160    27    28    1
   161    27    33    1
   162   121   123   ar
   163    28    31    1
   164    35    34    1
   165    35    38    1
   166    81    82    1
   167   137   138   ar
   168   148   150    1
   169   148   149    1
   170    40    39    2
   171   138   139    1
   172   126   127    1
   173   126   125   ar
   174    39    41   am
   175    39    38    1
   176    97    99    1
   177    97    98    1
   178   155   156    1
   179   123   125   ar
   180   220   218    1
   181    33    32    1
   182    31    32    1
   183   156   157    1
   184   215   214    1
   185   215   216    2
   186   214   217    1
   187   214   213    1
   188   217   218    1
   189   177   176    1
   190   218   219    1
   191   158   157    1
   192   176   178    1
   193   176   175    1
   194   205   204    2
   195   200   199    2
   196   201   199   am
   197   175   172    1
   198   199   198    1
   199   204   203    1
   200   186   184    1
   201   198   195    1
   202   184   183    1
   203   206   203    1
   204   206   207    1
   205   172   171    1
   206   172   173    1
   207   197   196    2
   208   166   168   ar
   209   166   164   ar
   210   195   196    1
   211   195   194    1
   212   208   207   ar
   213   208   210   ar
   214   203   202    1
   215   168   169   ar
   216   163   164    1
   217   163   160    1
   218   207   209   ar
   219   192   191    1
   220   171   161   am
   221   173   174    2
   222   183   185    1
   223   183   180    1
   224   164   165   ar
   225   210   212   ar
   226   194   189   am
   227   161   162    2
   228   161   160    1
   229   190   189    2
   230   160   159    1
   231   209   211   ar
   232   189   188    1
   233   169   170    1
   234   169   167   ar
   235   182   181    2
   236   191   188    1
   237   191   193    1
   238   212   211   ar
   239   180   181    1
   240   180   179    1
   241   165   167   ar
   242   188   187    1
