@<TRIPOS>MOLECULE
tmp/2uunV01.pdb
 215 205 0 0 0
SMALL
GASTEIGER

@<TRIPOS>ATOM
      1  N        -16.8880   62.5850  203.0530 N.3    59  LEU59      -0.1231
      2  CA       -15.9360   63.4820  202.3980 C.3    59  LEU59       0.1693
      3  C        -16.2240   63.6420  200.9170 C.2    59  LEU59       0.2592
      4  O        -16.1490   64.7420  200.3630 O.2    59  LEU59      -0.2718
      5  CB       -14.4760   63.0130  202.5720 C.3    59  LEU59       0.0284
      6  CG       -13.3900   63.7950  201.7980 C.3    59  LEU59       0.0019
      7  CD1      -13.4020   65.2330  202.0930 C.3    59  LEU59       0.0001
      8  CD2      -12.0620   63.2800  202.1360 C.3    59  LEU59       0.0001
      9  N        -16.5240   62.5280  200.2690 N.am   60  PHE60      -0.1976
     10  CA       -16.6770   62.5420  198.8200 C.3    60  PHE60       0.1639
     11  C        -17.9820   63.1890  198.4350 C.2    60  PHE60       0.2290
     12  O        -18.0540   63.8750  197.3910 O.2    60  PHE60      -0.2864
     13  CB       -16.5740   61.1340  198.2320 C.3    60  PHE60       0.0560
     14  CG       -15.2370   60.4690  198.5070 C.ar   60  PHE60      -0.0200
     15  CD1      -14.0150   61.1890  198.4250 C.ar   60  PHE60      -0.0042
     16  CD2      -15.1810   59.1220  198.8730 C.ar   60  PHE60      -0.0042
     17  CE1      -12.7810   60.5480  198.6850 C.ar   60  PHE60      -0.0003
     18  CE2      -13.9550   58.4990  199.1400 C.ar   60  PHE60      -0.0003
     19  CZ       -12.7580   59.2030  199.0340 C.ar   60  PHE60      -0.0000
     20  N        -13.2560   65.5460  194.1460 N.3    66  LEU66      -0.1245
     21  CA       -12.2390   64.5620  194.4620 C.3    66  LEU66       0.1561
     22  C        -12.3900   63.2850  193.6190 C.2    66  LEU66       0.2260
     23  O        -11.4030   62.6350  193.2220 O.2    66  LEU66      -0.2867
     24  CB       -12.2630   64.2330  195.9420 C.3    66  LEU66       0.0270
     25  CG       -11.8290   65.2890  196.9670 C.3    66  LEU66       0.0019
     26  CD1      -12.1310   64.8730  198.4110 C.3    66  LEU66       0.0001
     27  CD2      -10.3260   65.6130  196.8290 C.3    66  LEU66       0.0001
     28  N         -8.2160   63.7980  192.4240 N.3    72  ASN72      -0.1225
     29  CA        -7.1240   63.0200  193.0620 C.3    72  ASN72       0.1785
     30  C         -7.5560   61.6510  193.6140 C.2    72  ASN72       0.2597
     31  O         -6.7000   60.7840  193.8060 O.2    72  ASN72      -0.2718
     32  CB        -6.3200   63.8350  194.1080 C.3    72  ASN72       0.1169
     33  CG        -4.8460   63.3150  194.2940 C.2    72  ASN72       0.2627
     34  OD1       -4.3720   63.0820  195.4170 O.2    72  ASN72      -0.2716
     35  ND2       -4.1390   63.1420  193.1980 N.am   72  ASN72      -0.0877
     36  N         -8.8530   61.4120  193.8280 N.am   73  ALA73      -0.1979
     37  CA        -9.2550   60.0820  194.2820 C.3    73  ALA73       0.1597
     38  C         -9.9790   59.2870  193.2100 C.2    73  ALA73       0.2287
     39  O        -10.6370   58.2520  193.5440 O.2    73  ALA73      -0.2864
     40  CB       -10.1050   60.1830  195.5070 C.3    73  ALA73       0.0319
     41  N         -6.8210   52.5130  191.7860 N.3    77  ASP77      -0.1225
     42  CA        -5.4660   52.7840  192.3450 C.3    77  ASP77       0.1805
     43  C         -5.5140   53.9150  193.3930 C.2    77  ASP77       0.2597
     44  O         -5.1200   53.7050  194.5510 O.2    77  ASP77      -0.2718
     45  CB        -4.5290   53.1980  191.1670 C.3    77  ASP77       0.1424
     46  CG        -2.9370   53.2240  191.5180 C.2    77  ASP77       0.3668
     47  OD1       -2.2940   52.1130  191.6220 O.co2  77  ASP77      -0.2456
     48  OD2       -2.3050   54.3630  191.5600 O.co2  77  ASP77      -0.2456
     49  N         -6.0170   55.0980  192.9950 N.am   78  ARG78      -0.1979
     50  CA        -5.9840   56.3180  193.8400 C.3    78  ARG78       0.1597
     51  C         -7.0280   56.3300  194.9210 C.2    78  ARG78       0.2287
     52  O         -6.6930   56.6660  196.0670 O.2    78  ARG78      -0.2864
     53  CB        -6.1070   57.5930  193.0330 C.3    78  ARG78       0.0334
     54  CG        -4.9890   57.7660  192.0440 C.3    78  ARG78       0.0492
     55  CD        -4.6960   59.2180  191.8090 C.3    78  ARG78       0.2205
     56  NE        -5.7420   59.9150  191.0490 N.pl3  78  ARG78      -0.0865
     57  CZ        -5.7440   60.0070  189.7220 C.cat  78  ARG78       0.5346
     58  NH1       -4.7760   59.4050  189.0070 N.pl3  78  ARG78       0.1354
     59  NH2       -6.7230   60.6970  189.1070 N.pl3  78  ARG78       0.1354
     60  N         -5.5680   53.9070  197.4900 N.3    81  ALA81      -0.1231
     61  CA        -4.5250   54.6810  198.2240 C.3    81  ALA81       0.1694
     62  C         -5.1290   55.6570  199.2520 C.2    81  ALA81       0.2592
     63  O         -4.6020   55.8030  200.3390 O.2    81  ALA81      -0.2718
     64  CB        -3.5600   55.4420  197.2400 C.3    81  ALA81       0.0304
     65  N         -6.2220   56.3100  198.8870 N.am   82  CYS82      -0.1970
     66  CA        -6.8030   57.3660  199.6870 C.3    82  CYS82       0.1712
     67  C         -7.5020   56.8360  200.9320 C.2    82  CYS82       0.2296
     68  O         -7.2820   57.3850  202.0310 O.2    82  CYS82      -0.2864
     69  CB        -7.7910   58.1650  198.8620 C.3    82  CYS82       0.0983
     70  SG        -8.7500   59.2710  199.7920 S.3    82  CYS82      -0.0798
     71  N         -6.7100   53.9060  202.1930 N.3    84  ARG84      -0.1231
     72  CA        -5.5090   53.4760  202.9060 C.3    84  ARG84       0.1694
     73  C         -4.9490   54.5700  203.8180 C.2    84  ARG84       0.2592
     74  O         -4.5740   54.2700  204.9470 O.2    84  ARG84      -0.2718
     75  CB        -4.4450   53.0210  201.9000 C.3    84  ARG84       0.0321
     76  CG        -3.4080   52.0940  202.4460 C.3    84  ARG84       0.0489
     77  CD        -1.9890   52.4090  201.8730 C.3    84  ARG84       0.2205
     78  NE        -1.7870   53.8330  201.5440 N.pl3  84  ARG84      -0.0865
     79  CZ        -1.2350   54.2760  200.3980 C.cat  84  ARG84       0.5346
     80  NH1       -0.8070   53.3920  199.4570 N.pl3  84  ARG84       0.1354
     81  NH2       -1.0800   55.6040  200.1900 N.pl3  84  ARG84       0.1354
     82  N         -4.8860   55.8210  203.3480 N.am   85  ASP85      -0.1960
     83  CA        -4.2770   56.8960  204.1370 C.3    85  ASP85       0.1840
     84  C         -5.1170   57.2430  205.3080 C.2    85  ASP85       0.2621
     85  O         -4.6100   57.4600  206.4200 O.2    85  ASP85      -0.2715
     86  CB        -4.0700   58.1610  203.3440 C.3    85  ASP85       0.1450
     87  CG        -2.9080   58.0770  202.4450 C.2    85  ASP85       0.3671
     88  OD1       -2.3710   56.9560  202.2610 O.co2  85  ASP85      -0.2456
     89  OD2       -2.5410   59.1340  201.9000 O.co2  85  ASP85      -0.2456
     90  N         -6.4140   57.3210  205.0630 N.am   86  MET86      -0.1977
     91  CA        -7.3830   57.5250  206.1570 C.3    86  MET86       0.1605
     92  C         -7.0830   56.4890  207.2080 C.2    86  MET86       0.2287
     93  O         -6.8060   56.8350  208.3520 O.2    86  MET86      -0.2864
     94  CB        -8.8400   57.3320  205.6830 C.3    86  MET86       0.0413
     95  CG        -9.2510   58.3170  204.6070 C.3    86  MET86       0.0598
     96  SD        -9.5900   59.8600  205.4800 S.3    86  MET86      -0.1393
     97  CE       -11.3150   59.5560  205.9020 C.3    86  MET86       0.0692
     98  N         -4.4270   54.6350  207.7760 N.3    88  ILE88      -0.1231
     99  CA        -3.1320   54.7660  208.3810 C.3    88  ILE88       0.1692
    100  C         -3.1820   55.8550  209.4320 C.2    88  ILE88       0.2591
    101  O         -2.7600   55.6270  210.5530 O.2    88  ILE88      -0.2718
    102  CB        -2.0470   55.0630  207.3170 C.3    88  ILE88       0.0266
    103  CG1       -1.6940   53.7930  206.5600 C.3    88  ILE88       0.0019
    104  CG2       -0.7830   55.5600  207.9650 C.3    88  ILE88       0.0020
    105  CD1       -0.9700   54.0280  205.2960 C.3    88  ILE88       0.0001
    106  N         -3.6920   57.0420  209.0860 N.am   89  ILE89      -0.1980
    107  CA        -3.7170   58.1490  210.0630 C.3    89  ILE89       0.1595
    108  C         -4.4350   57.6840  211.3360 C.2    89  ILE89       0.2287
    109  O         -3.9270   57.8800  212.4320 O.2    89  ILE89      -0.2864
    110  CB        -4.3520   59.4260  209.4930 C.3    89  ILE89       0.0276
    111  CG1       -3.4480   59.9940  208.4120 C.3    89  ILE89       0.0022
    112  CG2       -4.5300   60.4380  210.5430 C.3    89  ILE89       0.0022
    113  CD1       -4.1380   60.8740  207.4290 C.3    89  ILE89       0.0001
    114  N         -4.8030   54.5730  212.4180 N.3    91  ARG91      -0.1231
    115  CA        -3.9350   53.5880  213.0930 C.3    91  ARG91       0.1694
    116  C         -2.9560   54.2930  214.0200 C.2    91  ARG91       0.2592
    117  O         -2.8750   53.9670  215.1900 O.2    91  ARG91      -0.2718
    118  CB        -3.2360   52.6370  212.0970 C.3    91  ARG91       0.0321
    119  CG        -2.5050   51.4890  212.7500 C.3    91  ARG91       0.0489
    120  CD        -2.1820   50.3810  211.7800 C.3    91  ARG91       0.2205
    121  NE        -1.6260   50.8940  210.5290 N.pl3  91  ARG91      -0.0865
    122  CZ        -0.3180   51.0680  210.2760 C.cat  91  ARG91       0.5346
    123  NH1        0.6440   50.7650  211.1620 N.pl3  91  ARG91       0.1354
    124  NH2        0.0330   51.5530  209.1050 N.pl3  91  ARG91       0.1354
    125  N         -2.2800   55.3150  213.4950 N.am   92  TYR92      -0.1976
    126  CA        -1.2520   55.9990  214.2460 C.3    92  TYR92       0.1639
    127  C         -1.8330   56.8300  215.3370 C.2    92  TYR92       0.2290
    128  O         -1.2210   56.9870  216.3890 O.2    92  TYR92      -0.2864
    129  CB        -0.3780   56.8290  213.3470 C.3    92  TYR92       0.0560
    130  CG         0.6720   55.9760  212.6730 C.ar   92  TYR92      -0.0198
    131  CD1        1.7830   55.5260  213.3900 C.ar   92  TYR92      -0.0009
    132  CD2        0.5560   55.5980  211.3370 C.ar   92  TYR92      -0.0009
    133  CE1        2.7400   54.7130  212.7890 C.ar   92  TYR92       0.0417
    134  CE2        1.4970   54.8220  210.7420 C.ar   92  TYR92       0.0417
    135  CZ         2.5920   54.3780  211.4680 C.ar   92  TYR92       0.1957
    136  OH         3.5800   53.5960  210.9070 O.3    92  TYR92      -0.2866
    137  N          6.5870   58.7000  212.7900 N.3   108  ARG108     -0.1231
    138  CA         6.4010   57.6800  211.7500 C.3   108  ARG108      0.1694
    139  C          5.2470   57.9170  210.7820 C.2   108  ARG108      0.2592
    140  O          4.9970   57.1110  209.8880 O.2   108  ARG108     -0.2718
    141  CB         6.2560   56.2950  212.3660 C.3   108  ARG108      0.0321
    142  CG         7.2390   56.0040  213.4660 C.3   108  ARG108      0.0489
    143  CD         7.4580   54.5220  213.5300 C.3   108  ARG108      0.2205
    144  NE         8.2340   54.2180  214.7230 N.pl3 108  ARG108     -0.0865
    145  CZ         8.2850   53.0130  215.3010 C.cat 108  ARG108      0.5346
    146  NH1        7.5590   51.9630  214.8150 N.pl3 108  ARG108      0.1354
    147  NH2        9.0330   52.8760  216.4050 N.pl3 108  ARG108      0.1354
    148  N          4.5380   59.0170  210.9460 N.am  109  CYS109     -0.1970
    149  CA         3.3590   59.2470  210.1450 C.3   109  CYS109      0.1712
    150  C          3.2300   60.6680  209.6240 C.2   109  CYS109      0.2296
    151  O          3.1430   60.8780  208.4180 O.2   109  CYS109     -0.2864
    152  CB         2.1400   58.8400  210.9430 C.3   109  CYS109      0.0983
    153  SG         0.6520   59.1170  210.0780 S.3   109  CYS109     -0.0798
    154  N          4.7730   64.3270  205.8000 N.3   113  LEU113     -0.1245
    155  CA         3.5270   64.0110  205.0960 C.3   113  LEU113      0.1561
    156  C          3.0220   65.1730  204.2430 C.2   113  LEU113      0.2260
    157  O          2.7140   64.9730  203.0510 O.2   113  LEU113     -0.2867
    158  CB         2.4370   63.5790  206.0620 C.3   113  LEU113      0.0270
    159  CG         1.1320   63.0670  205.4380 C.3   113  LEU113      0.0019
    160  CD1        1.4110   62.0290  204.3550 C.3   113  LEU113      0.0001
    161  CD2        0.2060   62.4660  206.5140 C.3   113  LEU113      0.0001
    162  N          4.9910   65.2400  201.1240 N.3   116  THR116     -0.1203
    163  CA         4.5410   64.1700  200.2350 C.3   116  THR116      0.1994
    164  C          3.2580   64.5560  199.4660 C.2   116  THR116      0.2617
    165  O          3.2230   64.5420  198.2170 O.2   116  THR116     -0.2717
    166  CB         4.2760   62.8860  200.9690 C.3   116  THR116      0.1784
    167  OG1        5.4400   62.5110  201.7110 O.3   116  THR116     -0.2211
    168  CG2        3.9440   61.7600  199.9650 C.3   116  THR116      0.0376
    169  N          2.2120   64.9200  200.1960 N.am  117  TYR117     -0.1975
    170  CA         1.0000   65.3310  199.5220 C.3   117  TYR117      0.1639
    171  C          1.2680   66.4310  198.4820 C.2   117  TYR117      0.2290
    172  O          0.7670   66.3390  197.3170 O.2   117  TYR117     -0.2864
    173  CB        -0.0930   65.7300  200.5080 C.3   117  TYR117      0.0560
    174  CG        -0.7140   64.5370  201.2130 C.ar  117  TYR117     -0.0198
    175  CD1       -0.9090   63.3310  200.5400 C.ar  117  TYR117     -0.0009
    176  CD2       -1.1330   64.6220  202.5570 C.ar  117  TYR117     -0.0009
    177  CE1       -1.5050   62.2400  201.1970 C.ar  117  TYR117      0.0417
    178  CE2       -1.7290   63.5560  203.2050 C.ar  117  TYR117      0.0417
    179  CZ        -1.9050   62.3750  202.5290 C.ar  117  TYR117      0.1957
    180  OH        -2.4790   61.3030  203.1660 O.3   117  TYR117     -0.2866
    181  N          2.7360   65.1340  195.3010 N.3   120  LEU120     -0.1245
    182  CA         1.8170   64.3090  194.5310 C.3   120  LEU120      0.1561
    183  C          0.7080   65.1190  193.9150 C.2   120  LEU120      0.2260
    184  O          0.1710   64.7140  192.8700 O.2   120  LEU120     -0.2867
    185  CB         1.1950   63.2240  195.4030 C.3   120  LEU120      0.0270
    186  CG         2.1490   62.1090  195.8150 C.3   120  LEU120      0.0019
    187  CD1        1.5950   61.5120  197.1330 C.3   120  LEU120      0.0001
    188  CD2        2.2930   61.0730  194.6460 C.3   120  LEU120      0.0001
    189  N         -1.8930   65.8570  196.0720 N.3   122  THR122     -0.1204
    190  CA        -3.0220   65.4750  196.9170 C.3   122  THR122      0.1979
    191  C         -3.4450   66.6740  197.7560 C.2   122  THR122      0.2459
    192  O         -2.5870   67.3380  198.3740 O.2   122  THR122     -0.2732
    193  CB        -2.6950   64.3130  197.8430 C.3   122  THR122      0.1783
    194  OG1       -2.2580   63.2110  197.0220 O.3   122  THR122     -0.2211
    195  CG2       -3.9470   63.9290  198.6840 C.3   122  THR122      0.0376
    196  N         -4.7590   66.9940  197.7400 N.am  123  PRO123     -0.2728
    197  CA        -5.1310   68.2420  198.4400 C.3   123  PRO123      0.1401
    198  C         -5.1640   67.9820  199.9430 C.2   123  PRO123      0.2269
    199  O         -6.1970   67.5730  200.5240 O.2   123  PRO123     -0.2865
    200  CB        -6.5130   68.5930  197.8520 C.3   123  PRO123      0.0296
    201  CG        -7.1150   67.2060  197.4340 C.3   123  PRO123      0.0237
    202  CD        -5.9050   66.3290  197.0650 C.3   123  PRO123      0.0939
    203  N         -8.1970   68.6760  202.1030 N.3   126  SER126     -0.1202
    204  CA        -9.2370   67.6420  202.0190 C.3   126  SER126      0.2020
    205  C         -8.9780   66.4620  203.0180 C.2   126  SER126      0.2618
    206  O         -9.8840   66.0330  203.7700 O.2   126  SER126     -0.2717
    207  CB        -9.3230   67.0930  200.6130 C.3   126  SER126      0.2103
    208  OG        -9.6250   68.1220  199.7530 O.3   126  SER126     -0.2182
    209  N         -7.7350   65.9690  203.0000 N.am  127  VAL127     -0.1979
    210  CA        -7.3060   64.9860  203.9500 C.3   127  VAL127      0.1595
    211  C         -7.6650   65.4380  205.3470 C.2   127  VAL127      0.2287
    212  O         -8.1350   64.6240  206.1490 O.2   127  VAL127     -0.2864
    213  CB        -5.7940   64.6970  203.8880 C.3   127  VAL127      0.0276
    214  CG1       -5.4580   63.5080  204.8720 C.3   127  VAL127      0.0022
    215  CG2       -5.3540   64.3970  202.4470 C.3   127  VAL127      0.0022
@<TRIPOS>BOND
     1    58    57    1
     2    59    57    1
     3    57    56    2
     4    56    55    1
     5    45    46    1
     6    45    42    1
     7    46    48   ar
     8    46    47   ar
     9    41    42    1
    10    55    54    1
    11    54    53    1
    12    42    43    1
    13    28    29    1
    14   184   183    2
    15    49    43   am
    16    49    50    1
    17    53    50    1
    18    29    30    1
    19    29    32    1
    20    35    33   am
    21    38    39    2
    22    38    37    1
    23    23    22    2
    24    43    44    2
    25    30    31    2
    26    30    36   am
    27    22    21    1
    28    36    37    1
    29    50    51    1
    30   183   182    1
    31    32    33    1
    32    20    21    1
    33    37    40    1
    34    33    34    2
    35    21    24    1
    36   182   181    1
    37   182   185    1
    38   188   186    1
    39    51    52    2
    40   185   186    1
    41   186   187    1
    42    24    25    1
    43   189   190    1
    44    27    25    1
    45   190   191    1
    46   190   193    1
    47    25    26    1
    48   194   193    1
    49   202   201    1
    50   202   196    1
    51    64    61    1
    52   172   171    2
    53    12    11    2
    54   201   200    1
    55    60    61    1
    56   196   191   am
    57   196   197    1
    58   191   192    2
    59   193   195    1
    60   200   197    1
    61   165   164    2
    62    61    62    1
    63    13    14    1
    64    13    10    1
    65    15    14   ar
    66    15    17   ar
    67    11    10    1
    68   197   198    1
    69   171   170    1
    70    14    16   ar
    71    17    19   ar
    72    10     9    1
    73    69    66    1
    74    69    70    1
    75    16    18   ar
    76    65    62   am
    77    65    66    1
    78    19    18   ar
    79    62    63    2
    80    80    79    1
    81   164   169   am
    82   164   163    1
    83   170   169    1
    84   170   173    1
    85    66    67    1
    86   208   207    1
    87   198   199    2
    88   168   166    1
    89    81    79    1
    90   163   166    1
    91   163   162    1
    92     9     3   am
    93     4     3    2
    94    79    78    2
    95   173   174    1
    96   175   177   ar
    97   175   174   ar
    98   207   204    1
    99     3     2    1
   100    67    68    2
   101   166   167    1
   102   177   179   ar
   103   174   176   ar
   104    78    77    1
   105     6     7    1
   106     6     8    1
   107     6     5    1
   108    77    76    1
   109    89    87   ar
   110    75    76    1
   111    75    72    1
   112   204   203    1
   113   204   205    1
   114    71    72    1
   115    88    87   ar
   116     2     5    1
   117     2     1    1
   118    87    86    1
   119   215   213    1
   120   179   180    1
   121   179   178   ar
   122   176   178   ar
   123    72    73    1
   124   209   205   am
   125   209   210    1
   126   205   206    2
   127   157   156    2
   128    86    83    1
   129    82    73   am
   130    82    83    1
   131    73    74    2
   132   213   210    1
   133   213   214    1
   134   210   211    1
   135    83    84    1
   136   156   155    1
   137   160   159    1
   138    95    96    1
   139    95    94    1
   140    90    84   am
   141    90    91    1
   142   155   154    1
   143   155   158    1
   144   105   103    1
   145    84    85    2
   146   211   212    2
   147   159   158    1
   148   159   161    1
   149    96    97    1
   150    94    91    1
   151    91    92    1
   152   103   102    1
   153    92    93    2
   154   102   104    1
   155   102    99    1
   156   113   111    1
   157    98    99    1
   158    99   100    1
   159   111   110    1
   160   151   150    2
   161   106   100   am
   162   106   107    1
   163   124   122    1
   164   100   101    2
   165   110   107    1
   166   110   112    1
   167   150   149    1
   168   140   139    2
   169   107   108    1
   170   153   152    1
   171   149   152    1
   172   149   148    1
   173   122   121    2
   174   122   123    1
   175   121   120    1
   176   134   132   ar
   177   134   135   ar
   178   139   148   am
   179   139   138    1
   180   136   135    1
   181   108   109    2
   182   132   130   ar
   183   135   133   ar
   184   138   141    1
   185   138   137    1
   186   120   119    1
   187   118   119    1
   188   118   115    1
   189   141   142    1
   190   114   115    1
   191   130   129    1
   192   130   131   ar
   193   133   131   ar
   194   115   116    1
   195   129   126    1
   196   142   143    1
   197   125   116   am
   198   125   126    1
   199   143   144    1
   200   116   117    2
   201   126   127    1
   202   144   145    2
   203   146   145    1
   204   145   147    1
   205   127   128    2
