@<TRIPOS>MOLECULE
tmp/2uunV02.pdb
 141 135 0 0 0
SMALL
GASTEIGER

@<TRIPOS>ATOM
      1  N         -3.4230   55.0420  237.0970 N.3    32  ALA32      -0.1231
      2  CA        -4.7460   54.8020  237.7120 C.3    32  ALA32       0.1694
      3  C         -5.9140   54.9410  236.7650 C.2    32  ALA32       0.2588
      4  O         -6.9760   54.4350  237.0550 O.2    32  ALA32      -0.2718
      5  CB        -4.9610   55.7110  238.8840 C.3    32  ALA32       0.0304
      6  N         -5.7130   55.6290  235.6480 N.am   33  GLU33      -0.2033
      7  CA        -6.7520   55.7560  234.6360 C.3    33  GLU33       0.1288
      8  C         -6.4810   54.9140  233.4020 C.3    33  GLU33       0.2036
      9  O         -7.1970   55.0950  232.3430 O.3    33  GLU33      -0.2185
     10  CB        -6.8700   57.1860  234.1980 C.3    33  GLU33       0.0362
     11  CG        -6.9130   58.1140  235.3830 C.3    33  GLU33       0.1159
     12  CD        -7.8940   59.2700  235.1500 C.2    33  GLU33       0.3649
     13  OE1       -7.9480   59.8790  234.0140 O.co2  33  GLU33      -0.2457
     14  OE2       -8.6130   59.5400  236.1350 O.co2  33  GLU33      -0.2457
     15  N         -7.4030   52.0110  232.6320 N.3    35  ASN35      -0.1225
     16  CA        -8.4150   51.1760  232.0670 C.3    35  ASN35       0.1785
     17  C         -9.2360   51.9310  231.0130 C.2    35  ASN35       0.2597
     18  O         -9.7500   51.3390  230.0040 O.2    35  ASN35      -0.2718
     19  CB        -9.3410   50.6480  233.1700 C.3    35  ASN35       0.1169
     20  CG        -8.7410   49.4660  233.9730 C.2    35  ASN35       0.2627
     21  OD1       -9.2740   49.1640  235.0400 O.2    35  ASN35      -0.2716
     22  ND2       -7.6360   48.7990  233.4680 N.am   35  ASN35      -0.0877
     23  N         -9.3900   53.2480  231.2440 N.am   36  LYS36      -0.1980
     24  CA       -10.2150   54.0510  230.3470 C.3    36  LYS36       0.1596
     25  C         -9.4630   54.2420  229.0510 C.2    36  LYS36       0.2287
     26  O        -10.0600   54.1430  227.9800 O.2    36  LYS36      -0.2864
     27  CB       -10.5340   55.3890  230.9590 C.3    36  LYS36       0.0298
     28  CG       -11.1760   55.3420  232.3310 C.3    36  LYS36       0.0038
     29  CD       -11.7750   56.7470  232.6910 C.3    36  LYS36       0.0206
     30  CE       -11.6640   57.1180  234.2030 C.3    36  LYS36       0.1093
     31  NZ       -10.6760   58.2580  234.3780 N.3    36  LYS36      -0.1314
     32  N         -7.1800   52.2330  227.7280 N.3    38  LEU38      -0.1231
     33  CA        -7.3610   50.9850  227.0000 C.3    38  LEU38       0.1693
     34  C         -8.7390   50.8190  226.3550 C.2    38  LEU38       0.2592
     35  O         -8.8190   50.4730  225.1950 O.2    38  LEU38      -0.2718
     36  CB        -6.9800   49.7710  227.8490 C.3    38  LEU38       0.0284
     37  CG        -5.5020   49.8300  228.1910 C.3    38  LEU38       0.0019
     38  CD1       -5.1460   48.9120  229.2940 C.3    38  LEU38       0.0001
     39  CD2       -4.6680   49.5070  226.9750 C.3    38  LEU38       0.0001
     40  N         -9.8250   51.0750  227.0790 N.am   39  ASP39      -0.1960
     41  CA       -11.1720   51.0570  226.4610 C.3    39  ASP39       0.1840
     42  C        -11.2060   52.0090  225.2530 C.2    39  ASP39       0.2621
     43  O        -11.7700   51.6540  224.2000 O.2    39  ASP39      -0.2715
     44  CB       -12.2300   51.5470  227.4580 C.3    39  ASP39       0.1450
     45  CG       -12.8320   50.4330  228.3670 C.2    39  ASP39       0.3671
     46  OD1      -13.1080   49.2690  227.9160 O.co2  39  ASP39      -0.2456
     47  OD2      -13.0870   50.7870  229.5550 O.co2  39  ASP39      -0.2456
     48  N        -10.6370   53.2250  225.4300 N.am   40  ALA40      -0.1977
     49  CA       -10.5740   54.2150  224.3430 C.3    40  ALA40       0.1597
     50  C        -10.0020   53.4880  223.0630 C.2    40  ALA40       0.2287
     51  O        -10.6850   53.4150  221.9940 O.2    40  ALA40      -0.2864
     52  CB        -9.7560   55.4290  224.7750 C.3    40  ALA40       0.0319
     53  N         -9.4650   50.1730  222.5000 N.3    42  ASN42      -0.1225
     54  CA       -10.2570   49.0590  222.0060 C.3    42  ASN42       0.1785
     55  C        -11.4490   49.5220  221.1660 C.2    42  ASN42       0.2597
     56  O        -11.7280   48.9940  220.1080 O.2    42  ASN42      -0.2718
     57  CB       -10.7300   48.2140  223.1680 C.3    42  ASN42       0.1169
     58  CG       -11.6220   47.0290  222.7340 C.2    42  ASN42       0.2627
     59  OD1      -11.2890   46.2790  221.8180 O.2    42  ASN42      -0.2716
     60  ND2      -12.7340   46.8480  223.4220 N.am   42  ASN42      -0.0877
     61  N        -12.1450   50.5320  221.6400 N.am   43  ARG43      -0.1979
     62  CA       -13.3340   50.9900  220.9840 C.3    43  ARG43       0.1597
     63  C        -13.0210   51.6470  219.6450 C.2    43  ARG43       0.2287
     64  O        -13.6810   51.3420  218.6520 O.2    43  ARG43      -0.2864
     65  CB       -14.0550   51.9600  221.8870 C.3    43  ARG43       0.0334
     66  CG       -14.8750   51.2730  222.8890 C.3    43  ARG43       0.0492
     67  CD       -15.5540   52.2510  223.7750 C.3    43  ARG43       0.2205
     68  NE       -16.6470   51.6030  224.5200 N.pl3  43  ARG43      -0.0865
     69  CZ       -17.6060   52.2670  225.1690 C.cat  43  ARG43       0.5346
     70  NH1      -17.6420   53.6130  225.1670 N.pl3  43  ARG43       0.1354
     71  NH2      -18.5380   51.5760  225.8040 N.pl3  43  ARG43       0.1354
     72  N        -15.9780   56.6300  221.6410 N.3   142  VAL142     -0.1231
     73  CA       -15.3670   56.4230  222.9810 C.3   142  VAL142      0.1692
     74  C        -16.3650   56.8840  224.0820 C.2   142  VAL142      0.2592
     75  O        -16.4810   56.2300  225.1110 O.2   142  VAL142     -0.2718
     76  CB       -13.8860   56.9850  223.1790 C.3   142  VAL142      0.0266
     77  CG1      -13.2330   57.2930  221.8620 C.3   142  VAL142      0.0020
     78  CG2      -13.8840   58.2040  224.0690 C.3   142  VAL142      0.0020
     79  N        -17.1080   57.9680  223.8190 N.am  143  ASN143     -0.1960
     80  CA       -17.9950   58.5480  224.8250 C.3   143  ASN143      0.1819
     81  C        -19.3090   57.8020  225.0030 C.2   143  ASN143      0.2621
     82  O        -20.1380   58.2120  225.7850 O.2   143  ASN143     -0.2715
     83  CB       -18.3410   60.0100  224.4830 C.3   143  ASN143      0.1195
     84  CG       -17.1940   60.9560  224.7100 C.2   143  ASN143      0.2630
     85  OD1      -16.4670   60.8730  225.7260 O.2   143  ASN143     -0.2716
     86  ND2      -17.0080   61.8780  223.7580 N.am  143  ASN143     -0.0877
     87  N        -19.5510   56.7530  224.2560 N.am  144  ASP144     -0.1958
     88  CA       -20.9070   56.1960  224.2910 C.3   144  ASP144      0.1825
     89  C        -21.1010   55.4160  225.6180 C.2   144  ASP144      0.2464
     90  O        -20.3050   54.5550  225.9480 O.2   144  ASP144     -0.2730
     91  CB       -21.2130   55.3530  223.0130 C.3   144  ASP144      0.1450
     92  CG       -22.4070   54.4170  223.1930 C.2   144  ASP144      0.3671
     93  OD1      -23.4180   54.8610  223.7910 O.co2 144  ASP144     -0.2456
     94  OD2      -22.3260   53.2330  222.7640 O.co2 144  ASP144     -0.2456
     95  N        -22.1480   55.7490  226.3960 N.am  145  PRO145     -0.2727
     96  CA       -22.3260   55.1490  227.7420 C.3   145  PRO145      0.1402
     97  C        -22.7730   53.6780  227.8000 C.2   145  PRO145      0.2269
     98  O        -22.6130   53.0390  228.8340 O.2   145  PRO145     -0.2865
     99  CB       -23.3750   56.0670  228.4230 C.3   145  PRO145      0.0296
    100  CG       -23.5320   57.2600  227.5040 C.3   145  PRO145      0.0237
    101  CD       -23.2010   56.7420  226.1170 C.3   145  PRO145      0.0939
    102  N        -20.5240   49.9570  229.3590 N.3   148  ILE148     -0.1231
    103  CA       -19.2710   50.2300  230.0390 C.3   148  ILE148      0.1692
    104  C        -19.5540   50.7140  231.4920 C.2   148  ILE148      0.2593
    105  O        -20.6740   51.1610  231.7930 O.2   148  ILE148     -0.2718
    106  CB       -18.3960   51.2040  229.1690 C.3   148  ILE148      0.0266
    107  CG1      -16.9130   50.9750  229.3940 C.3   148  ILE148      0.0019
    108  CG2      -18.7430   52.6530  229.4080 C.3   148  ILE148      0.0020
    109  CD1      -15.9990   51.6340  228.3680 C.3   148  ILE148      0.0001
    110  N        -18.5890   50.6310  232.3960 N.am  149  THR149     -0.1940
    111  CA       -18.7940   51.1810  233.7290 C.3   149  THR149      0.2013
    112  C        -18.8540   52.6900  233.6140 C.2   149  THR149      0.2484
    113  O        -17.9730   53.2810  233.0110 O.2   149  THR149     -0.2729
    114  CB       -17.6130   50.7950  234.6510 C.3   149  THR149      0.1807
    115  OG1      -17.6810   49.3830  234.9410 O.3   149  THR149     -0.2208
    116  CG2      -17.6240   51.5790  235.9580 C.3   149  THR149      0.0379
    117  N        -19.9030   53.3370  234.1690 N.am  150  PRO150     -0.2715
    118  CA       -20.0110   54.8180  234.0570 C.3   150  PRO150      0.1536
    119  C        -18.8970   55.5430  234.7460 C.2   150  PRO150      0.2599
    120  O        -18.5510   55.1560  235.8590 O.2   150  PRO150     -0.2715
    121  CB       -21.3010   55.1480  234.7900 C.3   150  PRO150      0.0310
    122  CG       -22.0570   53.8700  234.8070 C.3   150  PRO150      0.0237
    123  CD       -21.0540   52.7610  234.8810 C.3   150  PRO150      0.0939
    124  N        -18.3560   56.5880  234.1010 N.am  151  GLY151     -0.1955
    125  CA       -17.2850   57.4210  234.6920 C.3   151  GLY151      0.1869
    126  C        -16.8980   58.5870  233.8300 C.2   151  GLY151      0.2309
    127  O        -17.4250   58.7310  232.7380 O.2   151  GLY151     -0.2863
    128  N        -14.5120   60.3780  231.2780 N.3   153  CYS153     -0.1235
    129  CA       -13.4680   60.1480  230.3140 C.3   153  CYS153      0.1677
    130  C        -13.1430   61.4040  229.6270 C.2   153  CYS153      0.2270
    131  O        -12.5940   61.3730  228.5530 O.2   153  CYS153     -0.2867
    132  CB       -13.9240   59.1550  229.2800 C.3   153  CYS153      0.0956
    133  SG       -13.9980   57.4870  229.9710 S.3   153  CYS153     -0.0801
    134  N         -9.3300   62.2740  228.8400 N.3   156  LEU156     -0.1245
    135  CA        -8.8440   61.3250  227.8560 C.3   156  LEU156      0.1561
    136  C         -9.3420   61.7160  226.4540 C.2   156  LEU156      0.2260
    137  O         -8.5500   61.8280  225.4920 O.2   156  LEU156     -0.2867
    138  CB        -9.3130   59.9430  228.2610 C.3   156  LEU156      0.0270
    139  CG        -8.8740   58.7460  227.4490 C.3   156  LEU156      0.0019
    140  CD1       -7.3740   58.6220  227.5550 C.3   156  LEU156      0.0001
    141  CD2       -9.5170   57.5250  228.0120 C.3   156  LEU156      0.0001
@<TRIPOS>BOND
     1    64    63    2
     2    63    62    1
     3    56    55    2
     4    62    61    1
     5    62    65    1
     6    55    61   am
     7    55    54    1
     8    72    73    1
     9    59    58    2
    10    77    76    1
    11    65    66    1
    12    51    50    2
    13    54    53    1
    14    54    57    1
    15    58    57    1
    16    58    60   am
    17    94    92   ar
    18    66    67    1
    19    73    76    1
    20    73    74    1
    21    91    92    1
    22    91    88    1
    23    50    49    1
    24    76    78    1
    25    92    93   ar
    26    86    84   am
    27    67    68    1
    28    79    74   am
    29    79    80    1
    30    74    75    2
    31    43    42    2
    32    87    88    1
    33    87    81   am
    34    88    89    1
    35    49    52    1
    36    49    48    1
    37    83    84    1
    38    83    80    1
    39    68    69    2
    40    84    85    2
    41    80    81    1
    42    81    82    2
    43    70    69    1
    44    69    71    1
    45    35    34    2
    46    42    48   am
    47    42    41    1
    48   137   136    2
    49    89    90    2
    50    89    95   am
    51   101    95    1
    52   101   100    1
    53    34    33    1
    54    34    40   am
    55    95    96    1
    56   136   135    1
    57    41    40    1
    58    41    44    1
    59    39    37    1
    60    33    32    1
    61    33    36    1
    62   139   140    1
    63   139   141    1
    64   139   138    1
    65    44    45    1
    66   100    99    1
    67    96    97    1
    68    96    99    1
    69    97    98    2
    70    36    37    1
    71   135   138    1
    72   135   134    1
    73    46    45   ar
    74    26    25    2
    75    37    38    1
    76    45    47   ar
    77   109   107    1
    78   131   130    2
    79    25    24    1
    80   106   107    1
    81   106   108    1
    82   106   103    1
    83   132   133    1
    84   132   129    1
    85   102   103    1
    86   130   129    1
    87    18    17    2
    88   103   104    1
    89   129   128    1
    90    24    27    1
    91    24    23    1
    92    27    28    1
    93    17    23   am
    94    17    16    1
    95   104   105    2
    96   104   110   am
    97    16    15    1
    98    16    19    1
    99    28    29    1
   100     9     8    1
   101   110   111    1
   102    29    30    1
   103   127   126    2
   104   113   112    2
   105    19    20    1
   106     8     7    1
   107    22    20   am
   108   112   111    1
   109   112   117   am
   110   111   114    1
   111   126   125    1
   112    20    21    2
   113    13    12   ar
   114   118   117    1
   115   118   119    1
   116   118   121    1
   117   124   125    1
   118   124   119   am
   119   117   123    1
   120    10     7    1
   121    10    11    1
   122    30    31    1
   123     7     6    1
   124   114   115    1
   125   114   116    1
   126   119   120    2
   127   121   122    1
   128   122   123    1
   129    12    11    1
   130    12    14   ar
   131     6     3   am
   132     3     4    2
   133     3     2    1
   134     1     2    1
   135     2     5    1
