@<TRIPOS>MOLECULE
tmp/2uuoA00.pdb
 171 163 0 0 0
SMALL
GASTEIGER

@<TRIPOS>ATOM
      1  N         -7.8890   -1.8350   15.5100 N.3    11  ILE11      -0.1231
      2  CA        -8.4330   -1.7560   16.8480 C.3    11  ILE11       0.1692
      3  C         -9.9330   -1.9260   16.7920 C.2    11  ILE11       0.2592
      4  O        -10.6260   -1.0830   16.2150 O.2    11  ILE11      -0.2718
      5  CB        -8.1000   -0.4310   17.5050 C.3    11  ILE11       0.0266
      6  CG1       -6.5720   -0.2840   17.5380 C.3    11  ILE11       0.0019
      7  CG2       -8.7140   -0.3770   18.8990 C.3    11  ILE11       0.0020
      8  CD1       -6.0460    0.9610   18.1810 C.3    11  ILE11       0.0001
      9  N        -10.4290   -3.0360   17.3330 N.am   12  GLY12      -0.1957
     10  CA       -11.8500   -3.3100   17.3010 C.3    12  GLY12       0.1869
     11  C        -12.2560   -4.3770   16.2880 C.2    12  GLY12       0.2309
     12  O        -11.9670   -4.2660   15.0950 O.2    12  GLY12      -0.2863
     13  N         -8.7360   -5.6450   20.6850 N.3    35  ASP35      -0.1225
     14  CA       -10.0470   -5.1810   21.0770 C.3    35  ASP35       0.1805
     15  C         -9.9940   -5.1240   22.5870 C.2    35  ASP35       0.2598
     16  O         -9.4760   -6.0520   23.2270 O.2    35  ASP35      -0.2718
     17  CB       -11.0900   -6.1910   20.6290 C.3    35  ASP35       0.1424
     18  CG       -12.4550   -5.5860   20.5160 C.2    35  ASP35       0.3668
     19  OD1      -13.0060   -5.1150   21.5270 O.co2  35  ASP35      -0.2456
     20  OD2      -12.9740   -5.5840   19.3920 O.co2  35  ASP35      -0.2456
     21  N        -10.5000   -4.0390   23.1620 N.am   36  THR36      -0.1939
     22  CA       -10.4800   -3.8950   24.6190 C.3    36  THR36       0.2028
     23  C        -11.4340   -4.8790   25.3200 C.2    36  THR36       0.2642
     24  O        -11.3490   -5.0840   26.5170 O.2    36  THR36      -0.2714
     25  CB       -10.8330   -2.4590   25.0600 C.3    36  THR36       0.1808
     26  OG1      -12.0040   -2.0320   24.3570 O.3    36  THR36      -0.2208
     27  CG2       -9.6760   -1.5290   24.7500 C.3    36  THR36       0.0379
     28  N        -12.3380   -5.4740   24.5660 N.am   37  ARG37      -0.1977
     29  CA       -13.2790   -6.4480   25.1140 C.3    37  ARG37       0.1597
     30  C        -12.6140   -7.8360   25.1120 C.2    37  ARG37       0.2287
     31  O        -11.8580   -8.1810   24.1750 O.2    37  ARG37      -0.2864
     32  CB       -14.5750   -6.4630   24.2670 C.3    37  ARG37       0.0334
     33  CG       -15.2830   -5.1080   24.1830 C.3    37  ARG37       0.0492
     34  CD       -16.3470   -5.1010   23.0960 C.3    37  ARG37       0.2205
     35  NE       -15.7190   -5.0770   21.7900 N.pl3  37  ARG37      -0.0865
     36  CZ       -16.3390   -4.8320   20.6470 C.cat  37  ARG37       0.5346
     37  NH1      -17.6230   -4.5830   20.6080 N.pl3  37  ARG37       0.1354
     38  NH2      -15.6680   -4.8550   19.5270 N.pl3  37  ARG37       0.1354
     39  N        -11.3880    1.6230   15.2430 N.3    71  SER71      -0.1203
     40  CA       -12.8190    1.5260   15.1530 C.3    71  SER71       0.2005
     41  C        -13.4030    2.8550   15.6430 C.2    71  SER71       0.2461
     42  O        -12.7960    3.5380   16.4770 O.2    71  SER71      -0.2732
     43  CB       -13.3140    0.3940   16.0520 C.3    71  SER71       0.2103
     44  OG       -14.6480    0.6420   16.4670 O.3    71  SER71      -0.2182
     45  N        -14.5920    3.2280   15.1260 N.am   72  PRO72      -0.2717
     46  CA       -15.1780    4.4750   15.6150 C.3    72  PRO72       0.1536
     47  C        -15.4440    4.3690   17.1430 C.2    72  PRO72       0.2599
     48  O        -15.4300    5.3880   17.8800 O.2    72  PRO72      -0.2715
     49  CB       -16.4430    4.6180   14.7700 C.3    72  PRO72       0.0310
     50  CG       -16.7790    3.2050   14.3500 C.3    72  PRO72       0.0237
     51  CD       -15.4410    2.5770   14.1030 C.3    72  PRO72       0.0939
     52  N        -15.5750    3.1240   17.6100 N.am   73  GLY73      -0.1941
     53  CA       -15.9120    2.8430   19.0090 C.3    73  GLY73       0.2014
     54  C        -14.8280    3.1320   20.0340 C.2    73  GLY73       0.2638
     55  O        -15.0830    3.0440   21.2380 O.2    73  GLY73      -0.2714
     56  N        -13.6240    3.4860   19.5820 N.am   74  ILE74      -0.1977
     57  CA       -12.5460    3.8490   20.5030 C.3    74  ILE74       0.1596
     58  C        -12.1690    5.2910   20.2370 C.2    74  ILE74       0.2287
     59  O        -12.0260    5.6930   19.0990 O.2    74  ILE74      -0.2864
     60  CB       -11.2830    2.9490   20.3330 C.3    74  ILE74       0.0276
     61  CG1      -10.2120    3.3520   21.3610 C.3    74  ILE74       0.0022
     62  CG2      -10.7430    3.0170   18.9050 C.3    74  ILE74       0.0022
     63  CD1       -9.2310    2.2240   21.7240 C.3    74  ILE74       0.0001
     64  N        -22.2180    3.5310    8.4170 N.3   138  ASN138     -0.1240
     65  CA       -22.6160    3.4270    9.8050 C.3   138  ASN138      0.1653
     66  C        -23.8660    2.5550    9.9660 C.2   138  ASN138      0.2266
     67  O        -24.2630    2.2260   11.0860 O.2   138  ASN138     -0.2867
     68  CB       -22.8350    4.8210   10.3730 C.3   138  ASN138      0.1155
     69  CG       -22.8870    4.8320   11.8960 C.2   138  ASN138      0.2627
     70  OD1      -22.0890    4.1570   12.5600 O.2   138  ASN138     -0.2716
     71  ND2      -23.8310    5.5890   12.4590 N.am  138  ASN138     -0.0877
     72  N        -21.0180    8.4950   11.0820 N.3   159  SER159     -0.1217
     73  CA       -21.1600    9.0580   12.4110 C.3   159  SER159      0.1889
     74  C        -20.0360   10.0680   12.6110 C.2   159  SER159      0.2288
     75  O        -19.0410   10.1010   11.8510 O.2   159  SER159     -0.2866
     76  CB       -21.0320    7.9500   13.4690 C.3   159  SER159      0.2089
     77  OG       -19.6900    7.4720   13.6040 O.3   159  SER159     -0.2183
     78  N        -17.9350    9.9040   14.9390 N.3   161  PHE161     -0.1241
     79  CA       -16.7530    9.1040   15.2750 C.3   161  PHE161      0.1605
     80  C        -16.0220    8.7050   14.0190 C.2   161  PHE161      0.2264
     81  O        -14.8150    8.8550   13.9260 O.2   161  PHE161     -0.2867
     82  CB       -17.1580    7.8480   16.0660 C.3   161  PHE161      0.0534
     83  CG       -17.8450    8.1420   17.3780 C.ar  161  PHE161     -0.0203
     84  CD1      -17.6990    9.3720   18.0080 C.ar  161  PHE161     -0.0042
     85  CD2      -18.5980    7.1650   18.0060 C.ar  161  PHE161     -0.0042
     86  CE1      -18.3240    9.6380   19.2230 C.ar  161  PHE161     -0.0003
     87  CE2      -19.2040    7.4040   19.2300 C.ar  161  PHE161     -0.0003
     88  CZ       -19.0850    8.6410   19.8460 C.ar  161  PHE161     -0.0000
     89  N        -25.5580   14.5950   21.8250 N.3   182  ASP182     -0.1225
     90  CA       -25.4450   13.1540   21.7520 C.3   182  ASP182      0.1805
     91  C        -23.9680   12.7920   21.9090 C.2   182  ASP182      0.2597
     92  O        -23.1140   13.6380   21.7240 O.2   182  ASP182     -0.2718
     93  CB       -25.9890   12.6330   20.4400 C.3   182  ASP182      0.1424
     94  CG       -26.1260   11.1190   20.4170 C.2   182  ASP182      0.3668
     95  OD1      -25.9650   10.5000   21.5000 O.co2 182  ASP182     -0.2456
     96  OD2      -26.4140   10.5510   19.3190 O.co2 182  ASP182     -0.2456
     97  N        -23.6780   11.5520   22.2960 N.am  183  HIS183     -0.1975
     98  CA       -22.3140   11.0800   22.3690 C.3   183  HIS183      0.1656
     99  C        -21.4300   11.9320   23.2990 C.2   183  HIS183      0.2291
    100  O        -20.2240   11.9520   23.1260 O.2   183  HIS183     -0.2864
    101  CB       -21.6950   11.0930   20.9610 C.3   183  HIS183      0.0771
    102  CG       -22.4830   10.3340   19.9500 C.ar  183  HIS183      0.0820
    103  ND1      -22.7490    8.9840   20.0760 N.ar  183  HIS183     -0.2267
    104  CD2      -23.0630   10.7230   18.7870 C.ar  183  HIS183      0.1154
    105  CE1      -23.4570    8.5750   19.0330 C.ar  183  HIS183      0.1986
    106  NE2      -23.6600    9.6110   18.2340 N.ar  183  HIS183     -0.2212
    107  N        -18.1770   10.7730   24.6790 N.3   186  ARG186     -0.1245
    108  CA       -17.0310   10.7440   23.7920 C.3   186  ARG186      0.1563
    109  C        -16.5080   12.1410   23.4360 C.2   186  ARG186      0.2260
    110  O        -15.4390   12.2650   22.8320 O.2   186  ARG186     -0.2867
    111  CB       -17.3890    9.9610   22.5250 C.3   186  ARG186      0.0307
    112  CG       -17.0690    8.5020   22.6050 C.3   186  ARG186      0.0489
    113  CD       -15.5470    8.3500   22.4660 C.3   186  ARG186      0.2205
    114  NE       -15.0960    8.6290   21.1030 N.pl3 186  ARG186     -0.0865
    115  CZ       -15.2020    7.7550   20.1050 C.cat 186  ARG186      0.5346
    116  NH1      -15.7230    6.5490   20.3400 N.pl3 186  ARG186      0.1354
    117  NH2      -14.7690    8.0630   18.8910 N.pl3 186  ARG186      0.1354
    118  N        -32.0090    6.9570   20.0220 N.3   311  THR311     -0.1218
    119  CA       -30.9480    6.7560   20.9820 C.3   311  THR311      0.1862
    120  C        -30.3880    8.0530   21.5490 C.2   311  THR311      0.2287
    121  O        -29.2640    8.0880   22.0960 O.2   311  THR311     -0.2866
    122  CB       -29.8030    5.9500   20.3200 C.3   311  THR311      0.1770
    123  OG1      -29.4600    6.5320   19.0490 O.3   311  THR311     -0.2211
    124  CG2      -30.2290    4.5060   20.1090 C.3   311  THR311      0.0375
    125  N        -25.6490    8.5260   28.1140 N.3   338  LYS338     -0.1245
    126  CA       -24.4280    9.1510   27.6210 C.3   338  LYS338      0.1561
    127  C        -24.1940   10.5790   28.1660 C.2   338  LYS338      0.2260
    128  O        -23.5980   11.4380   27.4700 O.2   338  LYS338     -0.2867
    129  CB       -24.4450    9.1540   26.0780 C.3   338  LYS338      0.0271
    130  CG       -24.3890    7.7450   25.4860 C.3   338  LYS338      0.0035
    131  CD       -24.6090    7.7250   23.9840 C.3   338  LYS338      0.0206
    132  CE       -26.0880    7.9910   23.6790 C.3   338  LYS338      0.1093
    133  NZ       -26.4460    7.7620   22.2650 N.3   338  LYS338     -0.1314
    134  N        -28.7420    5.0910   24.4000 N.3   404  ALA404     -0.1231
    135  CA       -28.1400    3.9240   23.7840 C.3   404  ALA404      0.1694
    136  C        -28.6460    2.7130   24.5950 C.2   404  ALA404      0.2593
    137  O        -29.0900    2.8420   25.7480 O.2   404  ALA404     -0.2718
    138  CB       -26.6070    4.0330   23.8300 C.3   404  ALA404      0.0304
    139  N        -28.5930    1.5450   23.9960 N.am  405  SER405     -0.1938
    140  CA       -29.0010    0.3240   24.6680 C.3   405  SER405      0.2055
    141  C        -27.8080   -0.5190   25.0780 C.2   405  SER405      0.2642
    142  O        -27.9610   -1.5790   25.6690 O.2   405  SER405     -0.2714
    143  CB       -29.8640   -0.5110   23.7250 C.3   405  SER405      0.2130
    144  OG       -29.1590   -0.8020   22.5400 O.3   405  SER405     -0.2179
    145  N        -26.6190   -0.0590   24.7460 N.am  406  LEU406     -0.1977
    146  CA       -25.3950   -0.8360   24.9730 C.3   406  LEU406      0.1596
    147  C        -25.2180   -1.3140   26.4170 C.2   406  LEU406      0.2287
    148  O        -24.4770   -2.2610   26.6610 O.2   406  LEU406     -0.2864
    149  CB       -24.1730   -0.0390   24.4830 C.3   406  LEU406      0.0297
    150  CG       -24.3850    0.5000   23.0610 C.3   406  LEU406      0.0022
    151  CD1      -23.0720    1.0090   22.4520 C.3   406  LEU406      0.0001
    152  CD2      -24.9860   -0.6230   22.1640 C.3   406  LEU406      0.0001
    153  N        -27.3930   -3.9360   20.7440 N.3   411  ASN411     -0.1225
    154  CA       -27.6120   -2.7520   19.9320 C.3   411  ASN411      0.1785
    155  C        -29.0940   -2.3300   19.9640 C.2   411  ASN411      0.2597
    156  O        -29.9140   -3.0580   20.4760 O.2   411  ASN411     -0.2718
    157  CB       -27.1440   -3.0300   18.4970 C.3   411  ASN411      0.1169
    158  CG       -27.7100   -4.3390   17.9390 C.2   411  ASN411      0.2627
    159  OD1      -28.9060   -4.6410   18.1100 O.2   411  ASN411     -0.2716
    160  ND2      -26.8540   -5.1270   17.2690 N.am  411  ASN411     -0.0877
    161  N        -29.4360   -1.1710   19.4090 N.am  412  PHE412     -0.1976
    162  CA       -30.8030   -0.7130   19.4320 C.3   412  PHE412      0.1639
    163  C        -31.7480   -1.6530   18.6670 C.2   412  PHE412      0.2290
    164  O        -32.9520   -1.6850   18.9630 O.2   412  PHE412     -0.2864
    165  CB       -30.8970    0.7090   18.8690 C.3   412  PHE412      0.0560
    166  CG       -30.8100    0.7680   17.3940 C.ar  412  PHE412     -0.0200
    167  CD1      -31.9460    0.5630   16.6080 C.ar  412  PHE412     -0.0042
    168  CD2      -29.5760    0.9890   16.7640 C.ar  412  PHE412     -0.0042
    169  CE1      -31.8740    0.5830   15.2180 C.ar  412  PHE412     -0.0003
    170  CE2      -29.4910    0.9880   15.3620 C.ar  412  PHE412     -0.0003
    171  CZ       -30.6530    0.7880   14.5940 C.ar  412  PHE412     -0.0000
@<TRIPOS>BOND
     1    64    65    1
     2    65    66    1
     3    65    68    1
     4    66    67    2
     5    68    69    1
     6    72    73    1
     7    75    74    2
     8    69    71   am
     9    69    70    2
    10    73    74    1
    11    73    76    1
    12    76    77    1
    13    81    80    2
    14    80    79    1
    15    51    50    1
    16    51    45    1
    17    50    49    1
    18   171   169   ar
    19   171   170   ar
    20    49    46    1
    21    78    79    1
    22    12    11    2
    23    45    46    1
    24    45    41   am
    25    40    39    1
    26    40    41    1
    27    40    43    1
    28   169   167   ar
    29    79    82    1
    30   170   168   ar
    31     1     2    1
    32    46    47    1
    33    41    42    2
    34    43    44    1
    35    82    83    1
    36     4     3    2
    37    11    10    1
    38   167   166   ar
    39   168   166   ar
    40     3     2    1
    41     3     9   am
    42     2     5    1
    43    47    52   am
    44    47    48    2
    45   160   158   am
    46    10     9    1
    47    83    85   ar
    48    83    84   ar
    49   166   165    1
    50     5     6    1
    51     5     7    1
    52     6     8    1
    53    52    53    1
    54   158   159    2
    55   158   157    1
    56    85    87   ar
    57    84    86   ar
    58   106   104   ar
    59   106   105   ar
    60   157   154    1
    61   163   164    2
    62   163   162    1
    63   104   102   ar
    64   165   162    1
    65   117   115    1
    66    62    60    1
    67    53    54    1
    68   105   103   ar
    69   123   122    1
    70    59    58    2
    71    86    88   ar
    72    87    88   ar
    73    96    94   ar
    74    20    18   ar
    75   161   162    1
    76   161   155   am
    77    38    36    1
    78    56    54   am
    79    56    57    1
    80   154   155    1
    81   154   153    1
    82   102   103   ar
    83   102   101    1
    84   155   156    2
    85   118   119    1
    86    54    55    2
    87   115   116    1
    88   115   114    2
    89   124   122    1
    90    58    57    1
    91   122   119    1
    92    60    57    1
    93    60    61    1
    94    94    93    1
    95    94    95   ar
    96    93    90    1
    97    18    17    1
    98    18    19   ar
    99    37    36    1
   100    17    14    1
   101    36    35    2
   102    13    14    1
   103   101    98    1
   104   119   120    1
   105    14    15    1
   106   114   113    1
   107    61    63    1
   108   120   121    2
   109    92    91    2
   110    90    89    1
   111    90    91    1
   112    35    34    1
   113    91    97   am
   114   152   150    1
   115   133   132    1
   116    97    98    1
   117    98    99    1
   118   151   150    1
   119   113   112    1
   120   111   112    1
   121   111   108    1
   122   144   143    1
   123    15    21   am
   124    15    16    2
   125   110   109    2
   126   150   149    1
   127    34    33    1
   128   100    99    2
   129    21    22    1
   130   109   108    1
   131   132   131    1
   132   143   140    1
   133   135   138    1
   134   135   134    1
   135   135   136    1
   136   108   107    1
   137   131   130    1
   138   139   136   am
   139   139   140    1
   140    31    30    2
   141    33    32    1
   142    32    29    1
   143    26    25    1
   144   149   146    1
   145    28    29    1
   146    28    23   am
   147   136   137    2
   148    22    25    1
   149    22    23    1
   150   140   141    1
   151   145   146    1
   152   145   141   am
   153    27    25    1
   154   146   147    1
   155   141   142    2
   156    30    29    1
   157    23    24    2
   158   130   129    1
   159   129   126    1
   160   147   148    2
   161   128   127    2
   162   126   125    1
   163   126   127    1
