@<TRIPOS>MOLECULE
tmp/2uupA00.pdb
 187 178 0 0 0
SMALL
GASTEIGER

@<TRIPOS>ATOM
      1  N         -8.0190    1.8480  -16.7180 N.3    11  ILE11      -0.1231
      2  CA        -8.5170    1.7540  -18.0890 C.3    11  ILE11       0.1692
      3  C        -10.0460    1.8430  -18.0460 C.2    11  ILE11       0.2593
      4  O        -10.7260    0.9770  -17.4520 O.2    11  ILE11      -0.2718
      5  CB        -8.0930    0.4390  -18.7420 C.3    11  ILE11       0.0266
      6  CG1       -6.5730    0.2440  -18.6670 C.3    11  ILE11       0.0019
      7  CG2       -8.6260    0.3170  -20.1950 C.3    11  ILE11       0.0020
      8  CD1       -6.1360   -1.0880  -19.3020 C.3    11  ILE11       0.0001
      9  N        -10.5790    2.8940  -18.6640 N.am   12  GLY12      -0.1942
     10  CA       -12.0170    3.0900  -18.7160 C.3    12  GLY12       0.2014
     11  C        -12.4210    4.0730  -17.6490 C.2    12  GLY12       0.2638
     12  O        -12.1150    3.9050  -16.4540 O.2    12  GLY12      -0.2714
     13  N        -13.0710    5.1360  -18.0560 N.am   13  LEU13      -0.1977
     14  CA       -13.5450    6.0710  -17.0800 C.3    13  LEU13       0.1596
     15  C        -14.9670    5.6650  -16.6890 C.2    13  LEU13       0.2287
     16  O        -15.1950    4.5560  -16.2100 O.2    13  LEU13      -0.2864
     17  CB       -13.4570    7.4970  -17.6100 C.3    13  LEU13       0.0297
     18  CG       -13.3110    8.6350  -16.6020 C.3    13  LEU13       0.0022
     19  CD1      -12.3550    8.3590  -15.5030 C.3    13  LEU13       0.0001
     20  CD2      -12.9700    9.9120  -17.2500 C.3    13  LEU13       0.0001
     21  N         -8.6640    5.5670  -21.9730 N.3    35  ASP35      -0.1225
     22  CA        -9.9490    5.0630  -22.4670 C.3    35  ASP35       0.1805
     23  C         -9.8940    5.0420  -23.9960 C.2    35  ASP35       0.2598
     24  O         -9.3520    5.9720  -24.6280 O.2    35  ASP35      -0.2718
     25  CB       -11.0800    5.9810  -21.9570 C.3    35  ASP35       0.1424
     26  CG       -12.4690    5.3310  -22.0200 C.2    35  ASP35       0.3668
     27  OD1      -12.9170    4.9130  -23.0960 O.co2  35  ASP35      -0.2456
     28  OD2      -13.1210    5.2740  -20.9680 O.co2  35  ASP35      -0.2456
     29  N        -10.4450    3.9940  -24.6060 N.am   36  THR36      -0.1939
     30  CA       -10.4660    3.8650  -26.0670 C.3    36  THR36       0.2028
     31  C        -11.4420    4.8980  -26.6750 C.2    36  THR36       0.2642
     32  O        -11.3510    5.2280  -27.8540 O.2    36  THR36      -0.2714
     33  CB       -10.9130    2.4440  -26.5140 C.3    36  THR36       0.1808
     34  OG1      -12.1390    2.1250  -25.8640 O.3    36  THR36      -0.2208
     35  CG2       -9.8690    1.3590  -26.1520 C.3    36  THR36       0.0379
     36  N        -12.3610    5.4140  -25.8660 N.am   37  ARG37      -0.1977
     37  CA       -13.2970    6.4470  -26.3180 C.3    37  ARG37       0.1597
     38  C        -12.6500    7.8490  -26.2540 C.2    37  ARG37       0.2287
     39  O        -11.9550    8.1780  -25.2800 O.2    37  ARG37      -0.2864
     40  CB       -14.5860    6.4000  -25.4770 C.3    37  ARG37       0.0334
     41  CG       -15.3090    5.0270  -25.5150 C.3    37  ARG37       0.0492
     42  CD       -16.3540    4.8930  -24.3980 C.3    37  ARG37       0.2205
     43  NE       -15.7580    4.8360  -23.0510 N.pl3  37  ARG37      -0.0865
     44  CZ       -16.4430    4.6240  -21.9290 C.cat  37  ARG37       0.5346
     45  NH1      -17.7570    4.4300  -21.9680 N.pl3  37  ARG37       0.1354
     46  NH2      -15.8160    4.5930  -20.7630 N.pl3  37  ARG37       0.1354
     47  N         -5.8760    2.8700  -26.4820 N.3    57  LEU57      -0.1245
     48  CA        -5.0250    2.5210  -25.3500 C.3    57  LEU57       0.1561
     49  C         -3.5970    2.9920  -25.6200 C.2    57  LEU57       0.2260
     50  O         -3.1680    3.0960  -26.7780 O.2    57  LEU57      -0.2867
     51  CB        -5.0800    1.0200  -25.0400 C.3    57  LEU57       0.0270
     52  CG        -6.4700    0.4500  -24.7080 C.3    57  LEU57       0.0019
     53  CD1       -6.3650   -0.9810  -24.2280 C.3    57  LEU57       0.0001
     54  CD2       -7.1760    1.3100  -23.6410 C.3    57  LEU57       0.0001
     55  N        -11.6650   -1.3730  -16.1700 N.3    71  SER71      -0.1203
     56  CA       -13.1230   -1.3250  -16.1840 C.3    71  SER71       0.2005
     57  C        -13.6960   -2.6760  -16.6200 C.2    71  SER71       0.2461
     58  O        -13.1310   -3.3150  -17.4860 O.2    71  SER71      -0.2732
     59  CB       -13.6100   -0.2760  -17.1830 C.3    71  SER71       0.2103
     60  OG       -14.9980   -0.4300  -17.4580 O.3    71  SER71      -0.2182
     61  N        -14.8500   -3.0880  -16.0430 N.am   72  PRO72      -0.2717
     62  CA       -15.5010   -4.2970  -16.5470 C.3    72  PRO72       0.1536
     63  C        -15.9110   -4.1800  -18.0380 C.2    72  PRO72       0.2599
     64  O        -16.0780   -5.1930  -18.6910 O.2    72  PRO72      -0.2715
     65  CB       -16.7300   -4.4670  -15.6190 C.3    72  PRO72       0.0310
     66  CG       -17.0050   -3.1170  -15.0550 C.3    72  PRO72       0.0237
     67  CD       -15.6150   -2.4490  -14.9480 C.3    72  PRO72       0.0939
     68  N        -16.0140   -2.9650  -18.5770 N.am   73  GLY73      -0.1941
     69  CA       -16.4070   -2.8060  -19.9740 C.3    73  GLY73       0.2014
     70  C        -15.2960   -3.0030  -21.0060 C.2    73  GLY73       0.2638
     71  O        -15.5460   -2.8590  -22.2000 O.2    73  GLY73      -0.2714
     72  N        -14.0630   -3.2940  -20.5630 N.am   74  ILE74      -0.1977
     73  CA       -12.9730   -3.6870  -21.4870 C.3    74  ILE74       0.1596
     74  C        -12.6060   -5.1490  -21.2680 C.2    74  ILE74       0.2287
     75  O        -12.4000   -5.5750  -20.1270 O.2    74  ILE74      -0.2864
     76  CB       -11.7110   -2.7610  -21.3890 C.3    74  ILE74       0.0276
     77  CG1      -10.7110   -3.0930  -22.5210 C.3    74  ILE74       0.0022
     78  CG2      -11.0440   -2.8300  -20.0180 C.3    74  ILE74       0.0022
     79  CD1       -9.8020   -1.9540  -22.9190 C.3    74  ILE74       0.0001
     80  N        -22.5720   -3.5050   -9.2430 N.3   138  ASN138     -0.1240
     81  CA       -23.0330   -3.3890  -10.6130 C.3   138  ASN138      0.1653
     82  C        -24.4230   -2.6980  -10.7380 C.2   138  ASN138      0.2266
     83  O        -24.8550   -2.3710  -11.8350 O.2   138  ASN138     -0.2867
     84  CB       -23.0110   -4.7760  -11.2780 C.3   138  ASN138      0.1155
     85  CG       -23.2090   -4.7160  -12.7690 C.2   138  ASN138      0.2627
     86  OD1      -22.5160   -3.9790  -13.4650 O.2   138  ASN138     -0.2716
     87  ND2      -24.1680   -5.5060  -13.2790 N.am  138  ASN138     -0.0877
     88  N        -21.2840   -8.3440  -11.8040 N.3   159  SER159     -0.1217
     89  CA       -21.4120   -8.9020  -13.1610 C.3   159  SER159      0.1889
     90  C        -20.3300   -9.9390  -13.4400 C.2   159  SER159      0.2288
     91  O        -19.2700   -9.9650  -12.7650 O.2   159  SER159     -0.2866
     92  CB       -21.3280   -7.7790  -14.2030 C.3   159  SER159      0.2089
     93  OG       -19.9990   -7.2170  -14.2310 O.3   159  SER159     -0.2183
     94  N        -18.3120   -9.7790  -15.8040 N.3   161  PHE161     -0.1241
     95  CA       -17.1040   -9.0140  -16.1650 C.3   161  PHE161      0.1605
     96  C        -16.3160   -8.5880  -14.9300 C.2   161  PHE161      0.2264
     97  O        -15.0810   -8.6570  -14.9010 O.2   161  PHE161     -0.2867
     98  CB       -17.4460   -7.7510  -16.9830 C.3   161  PHE161      0.0534
     99  CG       -18.2010   -8.0230  -18.2690 C.ar  161  PHE161     -0.0203
    100  CD1      -18.0790   -9.2360  -18.9410 C.ar  161  PHE161     -0.0042
    101  CD2      -19.0240   -7.0440  -18.8070 C.ar  161  PHE161     -0.0042
    102  CE1      -18.7960   -9.4740  -20.1510 C.ar  161  PHE161     -0.0003
    103  CE2      -19.7480   -7.2540  -20.0050 C.ar  161  PHE161     -0.0003
    104  CZ       -19.6330   -8.4660  -20.6760 C.ar  161  PHE161     -0.0000
    105  N        -25.9250  -14.8450  -22.5210 N.3   182  ASP182     -0.1225
    106  CA       -25.7840  -13.3890  -22.5110 C.3   182  ASP182      0.1805
    107  C        -24.3130  -13.0760  -22.7070 C.2   182  ASP182      0.2597
    108  O        -23.4600  -13.9630  -22.5190 O.2   182  ASP182     -0.2718
    109  CB       -26.2690  -12.8360  -21.1590 C.3   182  ASP182      0.1424
    110  CG       -26.5620  -11.3660  -21.1880 C.2   182  ASP182      0.3668
    111  OD1      -26.4350  -10.7070  -22.2710 O.co2 182  ASP182     -0.2456
    112  OD2      -26.9540  -10.8510  -20.1020 O.co2 182  ASP182     -0.2456
    113  N        -24.0180  -11.8310  -23.0960 N.am  183  HIS183     -0.1975
    114  CA       -22.6400  -11.3300  -23.1960 C.3   183  HIS183      0.1656
    115  C        -21.7530  -12.1520  -24.1320 C.2   183  HIS183      0.2291
    116  O        -20.5420  -12.2070  -23.9590 O.2   183  HIS183     -0.2864
    117  CB       -22.0060  -11.2690  -21.7930 C.3   183  HIS183      0.0771
    118  CG       -22.8080  -10.4430  -20.8360 C.ar  183  HIS183      0.0820
    119  ND1      -23.0760   -9.1140  -21.0770 N.ar  183  HIS183     -0.2267
    120  CD2      -23.4540  -10.7650  -19.6900 C.ar  183  HIS183      0.1154
    121  CE1      -23.8350   -8.6430  -20.0960 C.ar  183  HIS183      0.1986
    122  NE2      -24.0480   -9.6110  -19.2280 N.ar  183  HIS183     -0.2212
    123  N        -18.5720  -10.9350  -25.6080 N.3   186  ARG186     -0.1245
    124  CA       -17.4290  -10.8630  -24.7210 C.3   186  ARG186      0.1563
    125  C        -16.9010  -12.2340  -24.3430 C.2   186  ARG186      0.2260
    126  O        -15.8830  -12.3260  -23.6400 O.2   186  ARG186     -0.2867
    127  CB       -17.7900  -10.0750  -23.4590 C.3   186  ARG186      0.0307
    128  CG       -17.5480   -8.5640  -23.5520 C.3   186  ARG186      0.0489
    129  CD       -16.0520   -8.2060  -23.4010 C.3   186  ARG186      0.2205
    130  NE       -15.5220   -8.4000  -22.0470 N.pl3 186  ARG186     -0.0865
    131  CZ       -15.6280   -7.5110  -21.0560 C.cat 186  ARG186      0.5346
    132  NH1      -16.2580   -6.3510  -21.2470 N.pl3 186  ARG186      0.1354
    133  NH2      -15.0910   -7.7850  -19.8780 N.pl3 186  ARG186      0.1354
    134  N        -32.4480   -7.1670  -20.8770 N.3   320  THR320     -0.1218
    135  CA       -31.3210   -6.9030  -21.7610 C.3   320  THR320      0.1862
    136  C        -30.7650   -8.2050  -22.3710 C.2   320  THR320      0.2287
    137  O        -29.7180   -8.1980  -23.0410 O.2   320  THR320     -0.2866
    138  CB       -30.2080   -6.1520  -20.9880 C.3   320  THR320      0.1770
    139  OG1      -29.9340   -6.8440  -19.7670 O.3   320  THR320     -0.2211
    140  CG2      -30.6690   -4.7230  -20.6340 C.3   320  THR320      0.0375
    141  N        -25.9510   -8.4600  -28.6740 N.3   347  LYS347     -0.1245
    142  CA       -24.7540   -9.1170  -28.1000 C.3   347  LYS347      0.1561
    143  C        -24.5210  -10.5210  -28.6780 C.2   347  LYS347      0.2260
    144  O        -24.0140  -11.4180  -27.9930 O.2   347  LYS347     -0.2867
    145  CB       -24.8460   -9.1650  -26.5620 C.3   347  LYS347      0.0271
    146  CG       -24.7650   -7.7990  -25.9050 C.3   347  LYS347      0.0035
    147  CD       -25.1440   -7.8320  -24.4020 C.3   347  LYS347      0.0206
    148  CE       -26.6520   -7.9720  -24.2080 C.3   347  LYS347      0.1093
    149  NZ       -26.9870   -8.0060  -22.7470 N.3   347  LYS347     -0.1314
    150  N        -29.1330   -5.2410  -25.1180 N.3   413  ALA413     -0.1231
    151  CA       -28.5650   -4.0440  -24.5130 C.3   413  ALA413      0.1694
    152  C        -29.0430   -2.7920  -25.2600 C.2   413  ALA413      0.2593
    153  O        -29.4340   -2.8630  -26.4420 O.2   413  ALA413     -0.2718
    154  CB       -27.0400   -4.1040  -24.5020 C.3   413  ALA413      0.0304
    155  N        -29.0140   -1.6620  -24.5600 N.am  414  SER414     -0.1938
    156  CA       -29.4970   -0.3760  -25.1020 C.3   414  SER414      0.2055
    157  C        -28.3600    0.4470  -25.6780 C.2   414  SER414      0.2642
    158  O        -28.5750    1.4930  -26.3030 O.2   414  SER414     -0.2714
    159  CB       -30.1780    0.4410  -24.0020 C.3   414  SER414      0.2130
    160  OG       -29.2240    0.9100  -23.0470 O.3   414  SER414     -0.2179
    161  N        -27.1510   -0.0650  -25.4950 N.am  415  LEU415     -0.1977
    162  CA       -25.9190    0.7430  -25.6150 C.3   415  LEU415      0.1596
    163  C        -25.5950    1.2410  -27.0180 C.2   415  LEU415      0.2287
    164  O        -24.7850    2.1650  -27.1660 O.2   415  LEU415     -0.2864
    165  CB       -24.7300   -0.0240  -24.9920 C.3   415  LEU415      0.0297
    166  CG       -24.9960   -0.4060  -23.5250 C.3   415  LEU415      0.0022
    167  CD1      -23.7900   -1.0910  -22.8540 C.3   415  LEU415      0.0001
    168  CD2      -25.4870    0.7620  -22.6480 C.3   415  LEU415      0.0001
    169  N        -27.7750    3.8390  -21.2420 N.3   420  ASN420     -0.1225
    170  CA       -28.0210    2.6590  -20.4060 C.3   420  ASN420      0.1785
    171  C        -29.5020    2.3020  -20.5000 C.2   420  ASN420      0.2597
    172  O        -30.2980    3.0860  -21.0460 O.2   420  ASN420     -0.2718
    173  CB       -27.6090    2.8800  -18.9330 C.3   420  ASN420      0.1169
    174  CG       -28.1460    4.1930  -18.3400 C.2   420  ASN420      0.2627
    175  OD1      -29.3020    4.5520  -18.5360 O.2   420  ASN420     -0.2716
    176  ND2      -27.2790    4.9250  -17.6200 N.am  420  ASN420     -0.0877
    177  N        -29.8810    1.1420  -19.9680 N.am  421  PHE421     -0.1976
    178  CA       -31.2620    0.6830  -20.1080 C.3   421  PHE421      0.1639
    179  C        -32.2070    1.5900  -19.3140 C.2   421  PHE421      0.2290
    180  O        -33.4050    1.6030  -19.5790 O.2   421  PHE421     -0.2864
    181  CB       -31.4300   -0.7700  -19.6430 C.3   421  PHE421      0.0560
    182  CG       -31.3080   -0.9320  -18.1470 C.ar  421  PHE421     -0.0200
    183  CD1      -32.4210   -0.7310  -17.3140 C.ar  421  PHE421     -0.0042
    184  CD2      -30.0730   -1.2560  -17.5720 C.ar  421  PHE421     -0.0042
    185  CE1      -32.3110   -0.8410  -15.9190 C.ar  421  PHE421     -0.0003
    186  CE2      -29.9370   -1.3660  -16.1920 C.ar  421  PHE421     -0.0003
    187  CZ       -31.0590   -1.1590  -15.3550 C.ar  421  PHE421     -0.0000
@<TRIPOS>BOND
     1   143   142    1
     2   143   144    2
     3   141   142    1
     4   142   145    1
     5    32    31    2
     6   164   163    2
     7   163   162    1
     8    50    49    2
     9    31    30    1
    10    31    36   am
    11   145   146    1
    12    33    35    1
    13    33    30    1
    14    33    34    1
    15    47    48    1
    16   153   152    2
    17    37    38    1
    18    37    36    1
    19    37    40    1
    20   158   157    2
    21    38    39    2
    22    30    29    1
    23   146   147    1
    24   157   161   am
    25   157   156    1
    26    49    48    1
    27   162   161    1
    28   162   165    1
    29   123   124    1
    30    41    40    1
    31    41    42    1
    32    48    51    1
    33   152   155   am
    34   152   151    1
    35   150   151    1
    36   156   155    1
    37   156   159    1
    38    51    52    1
    39   165   166    1
    40   124   125    1
    41   124   127    1
    42    52    53    1
    43    52    54    1
    44    24    23    2
    45    29    23   am
    46   151   154    1
    47   147   148    1
    48    42    43    1
    49   125   126    2
    50   148   149    1
    51   115   116    2
    52   115   114    1
    53   159   160    1
    54    23    22    1
    55   128   127    1
    56   128   129    1
    57   166   167    1
    58   166   168    1
    59   129   130    1
    60   114   113    1
    61   114   117    1
    62    27    26   ar
    63   113   107   am
    64    43    44    2
    65   137   136    2
    66    79    77    1
    67   107   108    2
    68   107   106    1
    69   105   106    1
    70    77    76    1
    71   106   109    1
    72    22    21    1
    73    22    25    1
    74   136   135    1
    75   111   110   ar
    76    71    70    2
    77   130   131    2
    78    26    25    1
    79    26    28   ar
    80    45    44    1
    81    44    46    1
    82   117   118    1
    83   135   138    1
    84   135   134    1
    85    73    76    1
    86    73    74    1
    87    73    72    1
    88    76    78    1
    89    74    75    2
    90   132   131    1
    91   169   170    1
    92   110   109    1
    93   110   112   ar
    94   119   118   ar
    95   119   121   ar
    96   131   133    1
    97   172   171    2
    98    70    72   am
    99    70    69    1
   100   138   140    1
   101   138   139    1
   102   118   120   ar
   103   104   102   ar
   104   104   103   ar
   105   171   170    1
   106   171   177   am
   107   170   173    1
   108     7     5    1
   109   102   100   ar
   110   178   177    1
   111   178   181    1
   112   178   179    1
   113   121   122   ar
   114   103   101   ar
   115    69    68    1
   116   120   122   ar
   117   181   182    1
   118   180   179    2
   119     8     6    1
   120   100    99   ar
   121   173   174    1
   122   101    99   ar
   123     5     6    1
   124     5     2    1
   125    10     9    1
   126    10    11    1
   127    64    63    2
   128     9     3   am
   129    68    63   am
   130   175   174    2
   131   174   176   am
   132    99    98    1
   133   182   184   ar
   134   182   183   ar
   135     2     3    1
   136     2     1    1
   137    13    11   am
   138    13    14    1
   139     3     4    2
   140    63    62    1
   141    11    12    2
   142    17    14    1
   143    17    18    1
   144   184   186   ar
   145    58    57    2
   146    60    59    1
   147   183   185   ar
   148    20    18    1
   149    59    56    1
   150    14    15    1
   151    98    95    1
   152    15    16    2
   153    57    56    1
   154    57    61   am
   155    18    19    1
   156    62    61    1
   157    62    65    1
   158   186   187   ar
   159    56    55    1
   160    95    94    1
   161    95    96    1
   162    61    67    1
   163   185   187   ar
   164    65    66    1
   165    66    67    1
   166    96    97    2
   167    93    92    1
   168    92    89    1
   169    86    85    2
   170    90    89    1
   171    90    91    2
   172    87    85   am
   173    89    88    1
   174    85    84    1
   175    83    82    2
   176    84    81    1
   177    82    81    1
   178    81    80    1
