@<TRIPOS>MOLECULE
tmp/2uuuA01.pdb
 169 161 0 0 0
SMALL
GASTEIGER

@<TRIPOS>ATOM
      1  N         19.0870  -37.6960   13.3090 N.3    53  PHE53      -0.1227
      2  CA        19.5190  -37.0210   12.0830 C.3    53  PHE53       0.1736
      3  C         20.9200  -37.4920   11.6460 C.2    53  PHE53       0.2595
      4  O         21.1560  -37.8250   10.4830 O.2    53  PHE53      -0.2718
      5  CB        19.5410  -35.4910   12.2810 C.3    53  PHE53       0.0547
      6  CG        19.8640  -34.7260   11.0290 C.ar   53  PHE53      -0.0202
      7  CD1       21.0730  -34.0420   10.9030 C.ar   53  PHE53      -0.0042
      8  CD2       18.9370  -34.6690    9.9780 C.ar   53  PHE53      -0.0042
      9  CE1       21.3840  -33.3250    9.7230 C.ar   53  PHE53      -0.0003
     10  CE2       19.2300  -33.9660    8.7820 C.ar   53  PHE53      -0.0003
     11  CZ        20.4560  -33.2900    8.6650 C.ar   53  PHE53      -0.0000
     12  N         21.8560  -37.4600   12.5820 N.am   54  ILE54      -0.1980
     13  CA        23.2230  -37.9360   12.3330 C.3    54  ILE54       0.1595
     14  C         23.2000  -39.4270   11.9260 C.2    54  ILE54       0.2287
     15  O         23.8600  -39.8340   10.9490 O.2    54  ILE54      -0.2864
     16  CB        24.1230  -37.7150   13.5720 C.3    54  ILE54       0.0276
     17  CG1       24.3020  -36.1860   13.8690 C.3    54  ILE54       0.0022
     18  CG2       25.4530  -38.4470   13.3960 C.3    54  ILE54       0.0022
     19  CD1       24.9760  -35.9270   15.1590 C.3    54  ILE54       0.0001
     20  N         21.9240  -39.7130    8.2150 N.3    57  GLU57      -0.1231
     21  CA        22.8010  -39.0680    7.2220 C.3    57  GLU57       0.1699
     22  C         24.1750  -39.7030    7.0780 C.2    57  GLU57       0.2592
     23  O         24.7570  -39.7460    5.9810 O.2    57  GLU57      -0.2718
     24  CB        22.9850  -37.5760    7.5530 C.3    57  GLU57       0.0402
     25  CG        21.7180  -36.7390    7.3830 C.3    57  GLU57       0.1161
     26  CD        20.9570  -37.0480    6.0960 C.2    57  GLU57       0.3649
     27  OE1       21.5460  -37.6090    5.1340 O.co2  57  GLU57      -0.2457
     28  OE2       19.7540  -36.7250    6.0430 O.co2  57  GLU57      -0.2457
     29  N         24.7170  -40.1690    8.1880 N.am   58  LEU58      -0.1980
     30  CA        26.0770  -40.6810    8.1630 C.3    58  LEU58       0.1596
     31  C         26.1260  -42.1100    8.6750 C.2    58  LEU58       0.2287
     32  O         26.8270  -42.4050    9.6370 O.2    58  LEU58      -0.2864
     33  CB        27.0470  -39.7340    8.9210 C.3    58  LEU58       0.0297
     34  CG        27.3310  -38.3520    8.2710 C.3    58  LEU58       0.0022
     35  CD1       27.9220  -37.3350    9.2330 C.3    58  LEU58       0.0001
     36  CD2       28.2320  -38.4540    7.0470 C.3    58  LEU58       0.0001
     37  N         40.5090  -23.0050   11.9230 N.3   114  SER114     -0.1202
     38  CA        40.2220  -23.7650   10.7180 C.3   114  SER114      0.2020
     39  C         40.1860  -25.2340   11.1170 C.2   114  SER114      0.2618
     40  O         40.6400  -25.5770   12.2140 O.2   114  SER114     -0.2717
     41  CB        41.3050  -23.5680    9.6370 C.3   114  SER114      0.2103
     42  OG        42.5200  -24.2320    9.9850 O.3   114  SER114     -0.2182
     43  N         39.6150  -26.0700   10.2570 N.am  115  LEU115     -0.1979
     44  CA        39.6640  -27.5370   10.4730 C.3   115  LEU115      0.1596
     45  C         41.0990  -28.0210   10.6500 C.2   115  LEU115      0.2287
     46  O         41.3900  -28.7990   11.5640 O.2   115  LEU115     -0.2864
     47  CB        39.0200  -28.2650    9.3180 C.3   115  LEU115      0.0297
     48  CG        38.9480  -29.7880    9.4280 C.3   115  LEU115      0.0022
     49  CD1       38.2050  -30.1420   10.7420 C.3   115  LEU115      0.0001
     50  CD2       38.2390  -30.3620    8.2050 C.3   115  LEU115      0.0001
     51  N         40.5600  -18.5020    9.6720 N.3   165  ILE165     -0.1245
     52  CA        40.6610  -19.8670    9.1920 C.3   165  ILE165      0.1561
     53  C         41.7200  -19.9930    8.1020 C.2   165  ILE165      0.2260
     54  O         41.7340  -20.9700    7.3880 O.2   165  ILE165     -0.2867
     55  CB        39.2600  -20.4090    8.7470 C.3   165  ILE165      0.0252
     56  CG1       38.6470  -19.5670    7.6160 C.3   165  ILE165      0.0019
     57  CG2       38.2730  -20.3760    9.9430 C.3   165  ILE165      0.0019
     58  CD1       37.5430  -20.3650    6.8100 C.3   165  ILE165      0.0001
     59  N         18.6040  -30.0470    9.0070 N.3   343  LEU343     -0.1245
     60  CA        19.4850  -29.8960   10.1520 C.3   343  LEU343      0.1561
     61  C         18.9050  -28.8910   11.1520 C.2   343  LEU343      0.2260
     62  O         18.8450  -29.1650   12.3690 O.2   343  LEU343     -0.2867
     63  CB        20.8730  -29.4190    9.7030 C.3   343  LEU343      0.0270
     64  CG        21.8400  -29.0280   10.8250 C.3   343  LEU343      0.0019
     65  CD1       22.1810  -30.2840   11.7250 C.3   343  LEU343      0.0001
     66  CD2       23.0940  -28.3580   10.2440 C.3   343  LEU343      0.0001
     67  N         26.3220  -23.1940   15.3110 N.3   425  LEU425     -0.1231
     68  CA        26.9220  -24.1640   14.3660 C.3   425  LEU425      0.1678
     69  C         28.3460  -24.7000   14.6530 C.2   425  LEU425      0.2434
     70  O         28.5240  -25.9150   14.6270 O.2   425  LEU425     -0.2733
     71  CB        26.7850  -23.7330   12.8850 C.3   425  LEU425      0.0284
     72  CG        25.4160  -23.8410   12.1650 C.3   425  LEU425      0.0019
     73  CD1       25.4480  -23.1060   10.8060 C.3   425  LEU425      0.0001
     74  CD2       24.9220  -25.3110   11.9680 C.3   425  LEU425      0.0001
     75  N         29.3620  -23.8240   14.8490 N.am  426  PRO426     -0.2729
     76  CA        30.6920  -24.3780   15.1300 C.3   426  PRO426      0.1401
     77  C         30.8570  -25.2670   16.3860 C.2   426  PRO426      0.2269
     78  O         31.8240  -26.0220   16.4720 O.2   426  PRO426     -0.2865
     79  CB        31.5920  -23.1280   15.2130 C.3   426  PRO426      0.0296
     80  CG        30.6580  -21.9620   15.3390 C.3   426  PRO426      0.0237
     81  CD        29.3870  -22.3480   14.6910 C.3   426  PRO426      0.0939
     82  N         28.8880  -27.6880   16.9400 N.3   428  ILE428     -0.1231
     83  CA        28.6450  -29.0850   16.4680 C.3   428  ILE428      0.1692
     84  C         29.8550  -29.7090   15.7530 C.2   428  ILE428      0.2591
     85  O         30.0060  -30.9390   15.7310 O.2   428  ILE428     -0.2718
     86  CB        27.3160  -29.2750   15.6340 C.3   428  ILE428      0.0266
     87  CG1       26.9540  -30.7620   15.5070 C.3   428  ILE428      0.0019
     88  CG2       27.4710  -28.6950   14.2560 C.3   428  ILE428      0.0020
     89  CD1       25.4980  -31.0640   15.4570 C.3   428  ILE428      0.0001
     90  N         30.7130  -28.8720   15.1790 N.am  429  ARG429     -0.1980
     91  CA        31.9240  -29.3370   14.5310 C.3   429  ARG429      0.1597
     92  C         32.7900  -29.9710   15.6020 C.2   429  ARG429      0.2287
     93  O         33.3410  -31.0290   15.3650 O.2   429  ARG429     -0.2864
     94  CB        32.6830  -28.1890   13.8220 C.3   429  ARG429      0.0334
     95  CG        34.1370  -28.5650   13.4560 C.3   429  ARG429      0.0492
     96  CD        34.8380  -27.4970   12.6150 C.3   429  ARG429      0.2205
     97  NE        35.0910  -26.2830   13.4150 N.pl3 429  ARG429     -0.0865
     98  CZ        35.8320  -25.2450   13.0340 C.cat 429  ARG429      0.5346
     99  NH1       36.4380  -25.2330   11.8410 N.pl3 429  ARG429      0.1354
    100  NH2       35.9890  -24.2120   13.8680 N.pl3 429  ARG429      0.1354
    101  N         31.2990  -33.3940   16.3500 N.3   432  LEU432     -0.1245
    102  CA        31.6440  -34.3620   15.2540 C.3   432  LEU432      0.1561
    103  C         33.0850  -34.8820   15.4190 C.2   432  LEU432      0.2260
    104  O         33.3300  -36.0660   15.2850 O.2   432  LEU432     -0.2867
    105  CB        31.4720  -33.7250   13.8510 C.3   432  LEU432      0.0270
    106  CG        30.0350  -33.2450   13.5020 C.3   432  LEU432      0.0019
    107  CD1       29.9300  -32.8350   12.0140 C.3   432  LEU432      0.0001
    108  CD2       28.9760  -34.2750   13.8280 C.3   432  LEU432      0.0001
    109  N         33.9450  -31.9300    9.5400 N.3   439  VAL439     -0.1231
    110  CA        33.1580  -31.0560    8.6960 C.3   439  VAL439      0.1692
    111  C         34.0830  -29.9090    8.2640 C.2   439  VAL439      0.2592
    112  O         34.9380  -29.4190    9.0440 O.2   439  VAL439     -0.2718
    113  CB        31.8330  -30.5850    9.4300 C.3   439  VAL439      0.0266
    114  CG1       32.1390  -29.8890   10.7530 C.3   439  VAL439      0.0020
    115  CG2       30.9850  -29.6490    8.5640 C.3   439  VAL439      0.0020
    116  N         33.9490  -29.5140    7.0060 N.am  440  ASP440     -0.1960
    117  CA        34.6290  -28.3290    6.5060 C.3   440  ASP440      0.1840
    118  C         33.6570  -27.5030    5.6590 C.2   440  ASP440      0.2621
    119  O         32.5020  -27.9050    5.4590 O.2   440  ASP440     -0.2715
    120  CB        35.9010  -28.7290    5.7180 C.3   440  ASP440      0.1450
    121  CG        36.9890  -27.6190    5.7040 C.2   440  ASP440      0.3671
    122  OD1       38.0920  -27.8820    5.2140 O.co2 440  ASP440     -0.2456
    123  OD2       36.7560  -26.5090    6.2000 O.co2 440  ASP440     -0.2456
    124  N         34.1420  -26.3670    5.1410 N.am  441  VAL441     -0.1977
    125  CA        33.3150  -25.4080    4.4310 C.3   441  VAL441      0.1596
    126  C         34.0000  -24.9110    3.1360 C.2   441  VAL441      0.2287
    127  O         35.2150  -24.9630    3.0310 O.2   441  VAL441     -0.2864
    128  CB        32.9570  -24.1610    5.3400 C.3   441  VAL441      0.0276
    129  CG1       32.1990  -24.6140    6.5730 C.3   441  VAL441      0.0022
    130  CG2       34.2370  -23.3820    5.7200 C.3   441  VAL441      0.0022
    131  N         27.8540  -36.1780    3.7970 N.3   474  TRP474     -0.1241
    132  CA        26.6970  -35.2970    3.8120 C.3   474  TRP474      0.1605
    133  C         27.1340  -33.8910    3.4510 C.2   474  TRP474      0.2264
    134  O         28.2600  -33.4730    3.7930 O.2   474  TRP474     -0.2867
    135  CB        26.0620  -35.3170    5.2210 C.3   474  TRP474      0.0550
    136  CG        24.9130  -34.4060    5.4330 C.ar  474  TRP474      0.0003
    137  CD1       23.6040  -34.6530    5.1620 C.ar  474  TRP474      0.0946
    138  CD2       24.9630  -33.0840    5.9920 C.ar  474  TRP474      0.0152
    139  NE1       22.8280  -33.5730    5.5310 N.ar  474  TRP474     -0.2442
    140  CE2       23.6410  -32.5950    6.0320 C.ar  474  TRP474      0.0810
    141  CE3       25.9990  -32.2680    6.4750 C.ar  474  TRP474      0.0012
    142  CZ2       23.3240  -31.3330    6.5500 C.ar  474  TRP474      0.0191
    143  CZ3       25.6710  -30.9850    6.9750 C.ar  474  TRP474      0.0001
    144  CH2       24.3500  -30.5520    7.0090 C.ar  474  TRP474      0.0015
    145  N         27.4340  -20.8870    0.1560 N.3   490  TYR490     -0.1241
    146  CA        28.2910  -21.4310    1.2020 C.3   490  TYR490      0.1605
    147  C         27.9810  -22.9280    1.3870 C.2   490  TYR490      0.2264
    148  O         26.8800  -23.2510    1.7520 O.2   490  TYR490     -0.2867
    149  CB        27.9470  -20.6660    2.4850 C.3   490  TYR490      0.0534
    150  CG        28.9050  -20.8270    3.6390 C.ar  490  TYR490     -0.0201
    151  CD1       28.8960  -22.0020    4.4270 C.ar  490  TYR490     -0.0009
    152  CD2       29.7890  -19.7980    3.9780 C.ar  490  TYR490     -0.0009
    153  CE1       29.7590  -22.1460    5.5060 C.ar  490  TYR490      0.0417
    154  CE2       30.6780  -19.9330    5.0520 C.ar  490  TYR490      0.0417
    155  CZ        30.6400  -21.1060    5.8160 C.ar  490  TYR490      0.1957
    156  OH        31.5130  -21.2520    6.8830 O.3   490  TYR490     -0.2866
    157  N         28.5770  -26.5970    3.2680 N.3   492  ILE492     -0.1245
    158  CA        29.0840  -27.2540    4.4750 C.3   492  ILE492      0.1561
    159  C         29.0840  -28.7650    4.1740 C.2   492  ILE492      0.2260
    160  O         28.0630  -29.3200    3.7810 O.2   492  ILE492     -0.2867
    161  CB        28.1880  -26.9650    5.7040 C.3   492  ILE492      0.0252
    162  CG1       28.1490  -25.4760    6.0390 C.3   492  ILE492      0.0019
    163  CG2       28.7140  -27.7070    6.9230 C.3   492  ILE492      0.0019
    164  CD1       26.9850  -25.0660    7.0330 C.3   492  ILE492      0.0001
    165  N         30.5810  -32.8890    5.1800 N.3   494  ALA494     -0.1245
    166  CA        31.0150  -33.6660    6.3230 C.3   494  ALA494      0.1562
    167  C         31.1010  -35.1610    6.0070 C.2   494  ALA494      0.2260
    168  O         30.3600  -35.6650    5.1450 O.2   494  ALA494     -0.2867
    169  CB        30.0650  -33.4520    7.5000 C.3   494  ALA494      0.0290
@<TRIPOS>BOND
     1   145   146    1
     2   146   147    1
     3   146   149    1
     4   147   148    2
     5   149   150    1
     6   127   126    2
     7   126   125    1
     8   157   158    1
     9   133   134    2
    10   133   132    1
    11   150   152   ar
    12   150   151   ar
    13   160   159    2
    14   131   132    1
    15   132   135    1
    16   152   154   ar
    17   159   158    1
    18   151   153   ar
    19   125   124    1
    20   125   128    1
    21   158   161    1
    22   154   155   ar
    23    27    26   ar
    24   124   118   am
    25   168   167    2
    26   137   136   ar
    27   137   139   ar
    28   165   166    1
    29   122   121   ar
    30   135   136    1
    31   128   130    1
    32   128   129    1
    33   136   138   ar
    34   119   118    2
    35   153   155   ar
    36   139   140   ar
    37   118   117    1
    38   121   120    1
    39   121   123   ar
    40   161   162    1
    41   161   163    1
    42   120   117    1
    43   155   156    1
    44    23    22    2
    45   138   140   ar
    46   138   141   ar
    47   167   166    1
    48   140   142   ar
    49   162   164    1
    50    28    26   ar
    51    26    25    1
    52   166   169    1
    53   141   143   ar
    54   117   116    1
    55   142   144   ar
    56    58    56    1
    57   143   144   ar
    58   116   111   am
    59    36    34    1
    60    22    21    1
    61    22    29   am
    62    21    24    1
    63    21    20    1
    64    25    24    1
    65    54    53    2
    66    56    55    1
    67    53    52    1
    68    30    29    1
    69    30    31    1
    70    30    33    1
    71    50    48    1
    72   111   110    1
    73   111   112    2
    74    34    33    1
    75    34    35    1
    76   115   113    1
    77    11    10   ar
    78    11     9   ar
    79    31    32    2
    80   110   113    1
    81   110   109    1
    82    55    52    1
    83    55    57    1
    84    10     8   ar
    85    59    60    1
    86    52    51    1
    87    47    48    1
    88    47    44    1
    89    48    49    1
    90   113   114    1
    91    41    42    1
    92    41    38    1
    93    63    60    1
    94    63    64    1
    95     9     7   ar
    96     8     6   ar
    97    60    61    1
    98    66    64    1
    99    43    44    1
   100    43    39   am
   101    44    45    1
   102     4     3    2
   103    45    46    2
   104    38    39    1
   105    38    37    1
   106    73    72    1
   107    64    65    1
   108     7     6   ar
   109    15    14    2
   110     6     5    1
   111    39    40    2
   112    61    62    2
   113     3     2    1
   114     3    12   am
   115    99    98    1
   116    14    13    1
   117    74    72    1
   118   107   106    1
   119     2     5    1
   120     2     1    1
   121    72    71    1
   122    13    12    1
   123    13    16    1
   124    96    97    1
   125    96    95    1
   126    71    68    1
   127    98    97    2
   128    98   100    1
   129    18    16    1
   130    95    94    1
   131   106   108    1
   132   106   105    1
   133    16    17    1
   134    94    91    1
   135   105   102    1
   136    17    19    1
   137    88    86    1
   138    68    69    1
   139    68    67    1
   140    91    90    1
   141    91    92    1
   142    70    69    2
   143    69    75   am
   144    81    75    1
   145    81    80    1
   146    75    76    1
   147    76    79    1
   148    76    77    1
   149    90    84   am
   150    79    80    1
   151   102   103    1
   152   102   101    1
   153   104   103    2
   154    93    92    2
   155    89    87    1
   156    87    86    1
   157    86    83    1
   158    85    84    2
   159    84    83    1
   160    77    78    2
   161    83    82    1
