@<TRIPOS>MOLECULE
tmp/2uv0C00.pdb
 230 219 0 0 0
SMALL
GASTEIGER

@<TRIPOS>ATOM
      1  N         55.0900    8.9840   71.3400 N.3    34  LEU34      -0.1245
      2  CA        55.1270   10.4190   71.3890 C.3    34  LEU34       0.1561
      3  C         53.7650   10.9120   71.8780 C.2    34  LEU34       0.2260
      4  O         52.7070   10.5600   71.3350 O.2    34  LEU34      -0.2867
      5  CB        55.4740   11.0210   70.0260 C.3    34  LEU34       0.0270
      6  CG        55.4430   12.5520   70.0050 C.3    34  LEU34       0.0019
      7  CD1       56.5430   13.1110   69.1010 C.3    34  LEU34       0.0001
      8  CD2       54.0630   13.0860   69.5940 C.3    34  LEU34       0.0001
      9  N         52.1590   14.4620   72.2600 N.3    36  GLY36      -0.1210
     10  CA        52.3210   15.8500   71.8650 C.3    36  GLY36       0.1956
     11  C         51.0720   16.6520   72.1710 C.2    36  GLY36       0.2612
     12  O         49.9660   16.1870   71.9250 O.2    36  GLY36      -0.2717
     13  N         51.2430   17.8640   72.6860 N.am   37  LEU37      -0.1965
     14  CA        50.1050   18.6630   73.1040 C.3    37  LEU37       0.1728
     15  C         50.3140   20.1590   72.8730 C.2    37  LEU37       0.2616
     16  O         51.3610   20.7130   73.2180 O.2    37  LEU37      -0.2715
     17  CB        49.8070   18.3940   74.5810 C.3    37  LEU37       0.0311
     18  CG        48.3470   18.5720   75.0090 C.3    37  LEU37       0.0022
     19  CD1       47.4110   17.6050   74.2820 C.3    37  LEU37       0.0001
     20  CD2       48.2470   18.3670   76.4940 C.3    37  LEU37       0.0001
     21  N         49.3030   20.7940   72.2830 N.am   38  LEU38      -0.1977
     22  CA        49.2660   22.2390   72.0910 C.3    38  LEU38       0.1596
     23  C         48.0820   22.8270   72.8350 C.2    38  LEU38       0.2287
     24  O         47.0380   22.1870   72.9280 O.2    38  LEU38      -0.2864
     25  CB        49.1350   22.5810   70.6080 C.3    38  LEU38       0.0297
     26  CG        50.4240   22.5000   69.7850 C.3    38  LEU38       0.0022
     27  CD1       50.0870   22.4970   68.3120 C.3    38  LEU38       0.0001
     28  CD2       51.3730   23.6510   70.1330 C.3    38  LEU38       0.0001
     29  N         53.3350   23.9050   66.2030 N.3    45  TYR45      -0.1241
     30  CA        53.6640   22.4830   66.2840 C.3    45  TYR45       0.1605
     31  C         55.1130   22.2520   66.6970 C.2    45  TYR45       0.2264
     32  O         55.4100   21.3320   67.4620 O.2    45  TYR45      -0.2867
     33  CB        53.4360   21.8020   64.9310 C.3    45  TYR45       0.0534
     34  CG        52.0040   21.7830   64.4430 C.ar   45  TYR45      -0.0201
     35  CD1       51.6780   22.2320   63.1680 C.ar   45  TYR45      -0.0009
     36  CD2       50.9800   21.3010   65.2480 C.ar   45  TYR45      -0.0009
     37  CE1       50.3730   22.2050   62.7080 C.ar   45  TYR45       0.0417
     38  CE2       49.6600   21.2730   64.7980 C.ar   45  TYR45       0.0417
     39  CZ        49.3660   21.7270   63.5280 C.ar   45  TYR45       0.1957
     40  OH        48.0710   21.7070   63.0780 O.3    45  TYR45      -0.2866
     41  N         55.3650   22.5320   70.5090 N.3    48  ALA48      -0.1245
     42  CA        54.3670   21.8320   71.3140 C.3    48  ALA48       0.1562
     43  C         55.0320   21.1960   72.5350 C.2    48  ALA48       0.2260
     44  O         56.2590   21.0230   72.5770 O.2    48  ALA48      -0.2867
     45  CB        53.6850   20.7630   70.4730 C.3    48  ALA48       0.0290
     46  N         55.9970   18.0750   74.1110 N.3    50  ILE50      -0.1245
     47  CA        56.2700   16.7740   73.5160 C.3    50  ILE50       0.1561
     48  C         56.9570   15.8520   74.5140 C.2    50  ILE50       0.2260
     49  O         58.0080   16.1800   75.0710 O.2    50  ILE50      -0.2867
     50  CB        57.1250   16.9130   72.2410 C.3    50  ILE50       0.0252
     51  CG1       56.2400   17.3950   71.0870 C.3    50  ILE50       0.0019
     52  CG2       57.7730   15.5810   71.8920 C.3    50  ILE50       0.0019
     53  CD1       57.0090   17.9020   69.9160 C.3    50  ILE50       0.0001
     54  N         60.6720    8.6650   71.0360 N.3    54  TYR54      -0.1241
     55  CA        61.1050    8.7530   69.6470 C.3    54  TYR54       0.1605
     56  C         62.5950    9.1070   69.6250 C.2    54  TYR54       0.2264
     57  O         63.0660    9.8480   70.4900 O.2    54  TYR54      -0.2867
     58  CB        60.3160    9.8410   68.9010 C.3    54  TYR54       0.0534
     59  CG        58.9680    9.4380   68.3410 C.ar   54  TYR54      -0.0201
     60  CD1       58.3480   10.2330   67.3830 C.ar   54  TYR54      -0.0009
     61  CD2       58.3050    8.2810   68.7580 C.ar   54  TYR54      -0.0009
     62  CE1       57.1230    9.8970   66.8500 C.ar   54  TYR54       0.0417
     63  CE2       57.0740    7.9310   68.2170 C.ar   54  TYR54       0.0417
     64  CZ        56.4890    8.7520   67.2690 C.ar   54  TYR54       0.1957
     65  OH        55.2750    8.4440   66.7240 O.3    54  TYR54      -0.2866
     66  N         65.5520   12.0460   65.2030 N.3    58  TRP58      -0.1227
     67  CA        64.3240   12.1240   64.4170 C.3    58  TRP58       0.1737
     68  C         63.4820   13.3260   64.8580 C.2    58  TRP58       0.2595
     69  O         63.1710   14.1880   64.0440 O.2    58  TRP58      -0.2718
     70  CB        63.5270   10.8280   64.5400 C.3    58  TRP58       0.0564
     71  CG        62.2010   10.9080   63.9190 C.ar   58  TRP58       0.0003
     72  CD1       60.9930   10.8090   64.5410 C.ar   58  TRP58       0.0946
     73  CD2       61.9260   11.1310   62.5340 C.ar   58  TRP58       0.0152
     74  NE1       59.9800   10.9410   63.6260 N.ar   58  TRP58      -0.2442
     75  CE2       60.5240   11.1460   62.3860 C.ar   58  TRP58       0.0810
     76  CE3       62.7300   11.3140   61.4050 C.ar   58  TRP58       0.0012
     77  CZ2       59.9010   11.3280   61.1420 C.ar   58  TRP58       0.0191
     78  CZ3       62.1140   11.5020   60.1730 C.ar   58  TRP58       0.0001
     79  CH2       60.7120   11.5100   60.0530 C.ar   58  TRP58       0.0015
     80  N         63.1470   13.3890   66.1480 N.am   59  ARG59      -0.1980
     81  CA        62.4180   14.5310   66.7200 C.3    59  ARG59       0.1597
     82  C         62.9970   15.8900   66.2920 C.2    59  ARG59       0.2287
     83  O         62.2610   16.7980   65.9040 O.2    59  ARG59      -0.2864
     84  CB        62.4090   14.4430   68.2590 C.3    59  ARG59       0.0334
     85  CG        61.5250   13.3450   68.8310 C.3    59  ARG59       0.0492
     86  CD        60.1440   13.8570   69.2080 C.3    59  ARG59       0.2205
     87  NE        59.4880   14.5170   68.0860 N.pl3  59  ARG59      -0.0865
     88  CZ        59.3630   15.8340   67.9340 C.cat  59  ARG59       0.5346
     89  NH1       59.8350   16.6850   68.8400 N.pl3  59  ARG59       0.1354
     90  NH2       58.7640   16.3080   66.8540 N.pl3  59  ARG59       0.1354
     91  N         62.4690   16.3450   62.5500 N.3    62  TYR62      -0.1227
     92  CA        61.0400   16.5940   62.3570 C.3    62  TYR62       0.1736
     93  C         60.6710   18.0520   62.6550 C.2    62  TYR62       0.2595
     94  O         59.9150   18.6690   61.9080 O.2    62  TYR62      -0.2718
     95  CB        60.2540   15.6510   63.2830 C.3    62  TYR62       0.0548
     96  CG        58.7480   15.6050   63.1410 C.ar   62  TYR62      -0.0200
     97  CD1       58.1250   14.4770   62.6060 C.ar   62  TYR62      -0.0009
     98  CD2       57.9380   16.6430   63.6090 C.ar   62  TYR62      -0.0009
     99  CE1       56.7570   14.3880   62.5060 C.ar   62  TYR62       0.0417
    100  CE2       56.5470   16.5640   63.5070 C.ar   62  TYR62       0.0417
    101  CZ        55.9700   15.4310   62.9500 C.ar   62  TYR62       0.1957
    102  OH        54.6140   15.3220   62.8470 O.3    62  TYR62      -0.2866
    103  N         61.2070   18.5970   63.7450 N.am   63  ASP63      -0.1974
    104  CA        60.8870   19.9710   64.1410 C.3    63  ASP63       0.1709
    105  C         61.5710   20.9840   63.2280 C.2    63  ASP63       0.2293
    106  O         60.9670   21.9970   62.8630 O.2    63  ASP63      -0.2864
    107  CB        61.2590   20.2280   65.6010 C.3    63  ASP63       0.1436
    108  CG        60.3750   19.4710   66.5740 C.2    63  ASP63       0.3671
    109  OD1       59.3670   18.8730   66.1470 O.co2  63  ASP63      -0.2456
    110  OD2       60.6870   19.4710   67.7740 O.co2  63  ASP63      -0.2456
    111  N         55.5200   18.5200   61.0960 N.3    68  ALA68      -0.1245
    112  CA        54.1740   18.5800   61.6400 C.3    68  ALA68       0.1562
    113  C         53.1740   19.0340   60.5700 C.2    68  ALA68       0.2260
    114  O         52.0210   18.6100   60.5720 O.2    68  ALA68      -0.2867
    115  CB        54.1230   19.5170   62.8280 C.3    68  ALA68       0.0290
    116  N         53.2670   15.7760   57.9380 N.3    71  ASP71      -0.1239
    117  CA        52.8980   14.5090   58.5370 C.3    71  ASP71       0.1674
    118  C         51.3840   14.3260   58.4830 C.2    71  ASP71       0.2266
    119  O         50.6560   15.1280   59.0700 O.2    71  ASP71      -0.2867
    120  CB        53.3870   14.5320   59.9860 C.3    71  ASP71       0.1410
    121  CG        53.1960   13.2300   60.7130 C.2    71  ASP71       0.3668
    122  OD1       52.4470   12.3370   60.2610 O.co2  71  ASP71      -0.2456
    123  OD2       53.8280   13.1180   61.7810 O.co2  71  ASP71      -0.2456
    124  N         49.5100   12.2210   59.9490 N.3    73  THR73      -0.1203
    125  CA        48.8830   11.9040   61.2330 C.3    73  THR73       0.1994
    126  C         48.4930   13.1800   61.9700 C.2    73  THR73       0.2617
    127  O         47.5390   13.1790   62.7370 O.2    73  THR73      -0.2717
    128  CB        49.7870   11.0550   62.1680 C.3    73  THR73       0.1784
    129  OG1       50.9250   11.8200   62.5660 O.3    73  THR73      -0.2211
    130  CG2       50.2430    9.7770   61.4920 C.3    73  THR73       0.0376
    131  N         49.2570   14.2510   61.7620 N.am   74  VAL74      -0.1979
    132  CA        48.9970   15.5380   62.4060 C.3    74  VAL74       0.1595
    133  C         47.7590   16.1940   61.7860 C.2    74  VAL74       0.2287
    134  O         46.8460   16.6000   62.5030 O.2    74  VAL74      -0.2864
    135  CB        50.2400   16.4680   62.3370 C.3    74  VAL74       0.0276
    136  CG1       49.9110   17.8770   62.8250 C.3    74  VAL74       0.0022
    137  CG2       51.3940   15.8690   63.1560 C.3    74  VAL74       0.0022
    138  N         44.8050   14.4450   63.0430 N.3    77  CYS77      -0.1221
    139  CA        44.4620   14.8620   64.4050 C.3    77  CYS77       0.1808
    140  C         43.6320   16.1360   64.4470 C.2    77  CYS77       0.2601
    141  O         42.7640   16.2680   65.2970 O.2    77  CYS77      -0.2717
    142  CB        45.7130   15.0320   65.2660 C.3    77  CYS77       0.0970
    143  SG        46.4610   13.4750   65.7020 S.3    77  CYS77      -0.0800
    144  N         43.8820   17.0640   63.5290 N.am   78  THR78      -0.1953
    145  CA        43.1150   18.3190   63.4880 C.3    78  THR78       0.1897
    146  C         41.6760   18.1370   62.9580 C.2    78  THR78       0.2313
    147  O         40.8550   19.0480   63.0630 O.2    78  THR78      -0.2863
    148  CB        43.8120   19.3850   62.6070 C.3    78  THR78       0.1794
    149  OG1       43.7170   19.0050   61.2300 O.3    78  THR78      -0.2208
    150  CG2       45.2670   19.5560   62.9960 C.3    78  THR78       0.0378
    151  N         49.3320    3.8670   60.8060 N.3    86  TRP86      -0.1241
    152  CA        50.4020    4.2870   59.9030 C.3    86  TRP86       0.1605
    153  C         50.5280    3.3740   58.6900 C.2    86  TRP86       0.2264
    154  O         51.5590    2.7470   58.4680 O.2    86  TRP86      -0.2867
    155  CB        51.7420    4.3610   60.6370 C.3    86  TRP86       0.0550
    156  CG        51.7580    5.2420   61.8310 C.ar   86  TRP86       0.0003
    157  CD1       50.8110    6.1570   62.2140 C.ar   86  TRP86       0.0946
    158  CD2       52.7990    5.3080   62.8010 C.ar   86  TRP86       0.0152
    159  NE1       51.2070    6.7730   63.3810 N.ar   86  TRP86      -0.2442
    160  CE2       52.4270    6.2740   63.7550 C.ar   86  TRP86       0.0810
    161  CE3       54.0230    4.6420   62.9530 C.ar   86  TRP86       0.0012
    162  CZ2       53.2380    6.5930   64.8540 C.ar   86  TRP86       0.0191
    163  CZ3       54.8210    4.9520   64.0470 C.ar   86  TRP86       0.0001
    164  CH2       54.4160    5.9130   64.9850 C.ar   86  TRP86       0.0015
    165  N         50.3630    8.2250   53.3190 N.3    91  TYR91      -0.1241
    166  CA        51.4360    9.1020   52.8580 C.3    91  TYR91       0.1605
    167  C         51.2390    9.3820   51.3650 C.2    91  TYR91       0.2264
    168  O         51.8170    8.7120   50.5020 O.2    91  TYR91      -0.2867
    169  CB        52.7900    8.4600   53.1510 C.3    91  TYR91       0.0534
    170  CG        53.0190    8.1720   54.6250 C.ar   91  TYR91      -0.0201
    171  CD1       52.9340    6.8760   55.1290 C.ar   91  TYR91      -0.0009
    172  CD2       53.3190    9.2000   55.5150 C.ar   91  TYR91      -0.0009
    173  CE1       53.1430    6.6150   56.4880 C.ar   91  TYR91       0.0417
    174  CE2       53.5410    8.9470   56.8610 C.ar   91  TYR91       0.0417
    175  CZ        53.4470    7.6590   57.3460 C.ar   91  TYR91       0.1957
    176  OH        53.6700    7.4310   58.6860 O.3    91  TYR91      -0.2866
    177  N         58.7200   11.8640   53.7150 N.3    99  PHE99      -0.1241
    178  CA        58.5360   11.7650   55.1530 C.3    99  PHE99       0.1605
    179  C         58.4370   10.3030   55.5960 C.2    99  PHE99       0.2264
    180  O         59.1090    9.8940   56.5390 O.2    99  PHE99      -0.2867
    181  CB        57.2910   12.5420   55.5850 C.3    99  PHE99       0.0534
    182  CG        56.9290   12.3310   57.0180 C.ar   99  PHE99      -0.0203
    183  CD1       57.5530   13.0710   58.0080 C.ar   99  PHE99      -0.0042
    184  CD2       55.9890   11.3760   57.3840 C.ar   99  PHE99      -0.0042
    185  CE1       57.2310   12.8790   59.3390 C.ar   99  PHE99      -0.0003
    186  CE2       55.6720   11.1770   58.7190 C.ar   99  PHE99      -0.0003
    187  CZ        56.2930   11.9300   59.6900 C.ar   99  PHE99      -0.0000
    188  N         60.8270    8.4900   58.2180 N.3   103  ALA103     -0.1245
    189  CA        60.2180    7.9300   59.4340 C.3   103  ALA103      0.1562
    190  C         60.5380    6.4430   59.5660 C.2   103  ALA103      0.2260
    191  O         60.9040    5.9770   60.6450 O.2   103  ALA103     -0.2867
    192  CB        58.7210    8.1390   59.4190 C.3   103  ALA103      0.0290
    193  N         59.9240    4.0520   62.5670 N.3   108  LEU108     -0.1245
    194  CA        58.5120    4.3450   62.7660 C.3   108  LEU108      0.1561
    195  C         57.7160    3.8670   61.5570 C.2   108  LEU108      0.2260
    196  O         57.0230    4.6550   60.9010 O.2   108  LEU108     -0.2867
    197  CB        58.3120    5.8460   62.9900 C.3   108  LEU108      0.0270
    198  CG        59.1180    6.4560   64.1330 C.3   108  LEU108      0.0019
    199  CD1       58.8610    7.9560   64.2160 C.3   108  LEU108      0.0001
    200  CD2       58.7560    5.7600   65.4410 C.3   108  LEU108      0.0001
    201  N         48.3130    6.7190   65.5040 N.3   113  THR113     -0.1218
    202  CA        48.2190    7.9700   66.2160 C.3   113  THR113      0.1862
    203  C         46.7670    8.1650   66.6690 C.2   113  THR113      0.2287
    204  O         45.8250    8.0640   65.8670 O.2   113  THR113     -0.2866
    205  CB        48.7050    9.1400   65.3470 C.3   113  THR113      0.1770
    206  OG1       50.0950    8.9640   65.0400 O.3   113  THR113     -0.2211
    207  CG2       48.5150   10.4580   66.0530 C.3   113  THR113      0.0375
    208  N         44.9760   20.5520   71.6190 N.3   122  LEU122     -0.1231
    209  CA        45.1490   19.7270   70.4330 C.3   122  LEU122      0.1693
    210  C         46.4070   18.9000   70.6180 C.2   122  LEU122      0.2593
    211  O         47.4710   19.4440   70.9420 O.2   122  LEU122     -0.2718
    212  CB        45.3110   20.6020   69.1960 C.3   122  LEU122      0.0284
    213  CG        45.7380   19.9010   67.9040 C.3   122  LEU122      0.0019
    214  CD1       44.7730   18.7900   67.5240 C.3   122  LEU122      0.0001
    215  CD2       45.8890   20.9240   66.7940 C.3   122  LEU122      0.0001
    216  N         46.2870   17.5990   70.3880 N.am  123  GLY123     -0.1942
    217  CA        47.4030   16.7020   70.5860 C.3   123  GLY123      0.2014
    218  C         47.3640   15.4070   69.8150 C.2   123  GLY123      0.2638
    219  O         46.4390   15.1340   69.0430 O.2   123  GLY123     -0.2714
    220  N         48.4070   14.6200   70.0400 N.am  124  ALA124     -0.1977
    221  CA        48.5480   13.2980   69.4660 C.3   124  ALA124      0.1597
    222  C         49.1820   12.3830   70.4860 C.2   124  ALA124      0.2287
    223  O         50.1370   12.7720   71.1620 O.2   124  ALA124     -0.2864
    224  CB        49.4290   13.3510   68.2180 C.3   124  ALA124      0.0319
    225  N         51.0060    9.0580   69.7590 N.3   126  SER126     -0.1217
    226  CA        51.4900    8.1650   68.7310 C.3   126  SER126      0.1889
    227  C         52.2510    7.0390   69.3770 C.2   126  SER126      0.2288
    228  O         53.0090    7.2570   70.3260 O.2   126  SER126     -0.2866
    229  CB        52.3900    8.9090   67.7540 C.3   126  SER126      0.2089
    230  OG        51.6460    9.8110   66.9630 O.3   126  SER126     -0.2183
@<TRIPOS>BOND
     1   168   167    2
     2   167   166    1
     3   166   169    1
     4   166   165    1
     5   169   170    1
     6   177   178    1
     7   170   171   ar
     8   170   172   ar
     9   171   173   ar
    10   178   181    1
    11   178   179    1
    12   172   174   ar
    13   181   182    1
    14   179   180    2
    15   173   175   ar
    16   174   175   ar
    17   182   184   ar
    18   182   183   ar
    19   175   176    1
    20   184   186   ar
    21   116   117    1
    22   183   185   ar
    23   188   189    1
    24   154   153    2
    25   118   117    1
    26   118   119    2
    27   117   120    1
    28   153   152    1
    29   186   187   ar
    30   185   187   ar
    31   192   189    1
    32   189   190    1
    33   190   191    2
    34   152   155    1
    35   152   151    1
    36   124   125    1
    37   120   121    1
    38    79    78   ar
    39    79    77   ar
    40    78    76   ar
    41   122   121   ar
    42   113   114    2
    43   113   112    1
    44   155   156    1
    45   121   123   ar
    46   196   195    2
    47   111   112    1
    48    77    75   ar
    49   149   148    1
    50   125   126    1
    51   125   128    1
    52    76    73   ar
    53   130   128    1
    54   195   194    1
    55   112   115    1
    56   131   126   am
    57   131   132    1
    58   133   132    1
    59   133   134    2
    60   156   157   ar
    61   156   158   ar
    62    94    93    2
    63   126   127    2
    64   128   129    1
    65   157   159   ar
    66   135   132    1
    67   135   136    1
    68   135   137    1
    69    92    91    1
    70    92    93    1
    71    92    95    1
    72    75    73   ar
    73    75    74   ar
    74    99    97   ar
    75    99   101   ar
    76    73    71   ar
    77   193   194    1
    78    97    96   ar
    79   148   150    1
    80   148   145    1
    81    93   103   am
    82    37    35   ar
    83    37    39   ar
    84   194   197    1
    85   158   161   ar
    86   158   160   ar
    87   102   101    1
    88   106   105    2
    89   101   100   ar
    90   161   163   ar
    91   146   147    2
    92   146   145    1
    93   197   198    1
    94   138   139    1
    95    40    39    1
    96    96    95    1
    97    96    98   ar
    98    35    34   ar
    99   105   104    1
   100   159   160   ar
   101   145   144    1
   102   100    98   ar
   103    39    38   ar
   104   144   140   am
   105    74    72   ar
   106   103   104    1
   107   160   162   ar
   108    71    70    1
   109    71    72   ar
   110    69    68    2
   111   163   164   ar
   112   198   199    1
   113   198   200    1
   114   104   107    1
   115   139   140    1
   116   139   142    1
   117    67    70    1
   118    67    68    1
   119    67    66    1
   120    34    33    1
   121    34    36   ar
   122   140   141    2
   123    38    36   ar
   124   162   164   ar
   125    68    80   am
   126    33    30    1
   127   206   205    1
   128   142   143    1
   129   205   207    1
   130   205   202    1
   131   201   202    1
   132   107   108    1
   133   204   203    2
   134    83    82    2
   135   109   108   ar
   136    80    81    1
   137    29    30    1
   138   202   203    1
   139    30    31    1
   140    82    81    1
   141   108   110   ar
   142    31    32    2
   143    81    84    1
   144    65    64    1
   145   215   213    1
   146    62    64   ar
   147    62    60   ar
   148    90    88    1
   149   230   229    1
   150    64    63   ar
   151    60    59   ar
   152   214   213    1
   153   229   226    1
   154   213   212    1
   155    88    87    2
   156    88    89    1
   157    87    86    1
   158    63    61   ar
   159   224   221    1
   160    84    85    1
   161    27    26    1
   162    59    61   ar
   163    59    58    1
   164   226   227    1
   165   226   225    1
   166    85    86    1
   167    58    55    1
   168   219   218    2
   169     7     6    1
   170   212   209    1
   171   227   228    2
   172   221   220    1
   173   221   222    1
   174     8     6    1
   175    56    55    1
   176    56    57    2
   177    55    54    1
   178    26    28    1
   179    26    25    1
   180   218   220   am
   181   218   217    1
   182    53    51    1
   183     6     5    1
   184     5     2    1
   185   216   217    1
   186   216   210   am
   187   209   210    1
   188   209   208    1
   189    45    42    1
   190   222   223    2
   191    41    42    1
   192    25    22    1
   193   210   211    2
   194    51    50    1
   195    42    43    1
   196     4     3    2
   197     1     2    1
   198     2     3    1
   199    10    11    1
   200    10     9    1
   201    52    50    1
   202    12    11    2
   203    22    21    1
   204    22    23    1
   205    11    13   am
   206    50    47    1
   207    21    15   am
   208    43    44    2
   209    13    14    1
   210    23    24    2
   211    15    14    1
   212    15    16    2
   213    14    17    1
   214    47    46    1
   215    47    48    1
   216    19    18    1
   217    48    49    2
   218    17    18    1
   219    18    20    1
