@<TRIPOS>MOLECULE
tmp/2uv2A00.pdb
 123 115 0 0 0
SMALL
GASTEIGER

@<TRIPOS>ATOM
      1  N        -32.0290   54.1980   -9.3790 N.3    20  LEU20      -0.1231
      2  CA       -30.8170   53.4650   -9.0050 C.3    20  LEU20       0.1693
      3  C        -30.0900   52.9420  -10.2480 C.2    20  LEU20       0.2592
      4  O        -28.8550   53.0520  -10.3650 O.2    20  LEU20      -0.2718
      5  CB       -31.1650   52.2960   -8.0780 C.3    20  LEU20       0.0284
      6  CG       -31.7270   52.6620   -6.7040 C.3    20  LEU20       0.0019
      7  CD1      -32.1050   51.4040   -5.9150 C.3    20  LEU20       0.0001
      8  CD2      -30.7180   53.5170   -5.9440 C.3    20  LEU20       0.0001
      9  N        -30.8640   52.3680  -11.1650 N.am   21  GLY21      -0.1957
     10  CA       -30.3370   51.8910  -12.4390 C.3    21  GLY21       0.1869
     11  C        -31.4100   51.7670  -13.5070 C.2    21  GLY21       0.2309
     12  O        -32.5520   52.1950  -13.3170 O.2    21  GLY21      -0.2863
     13  N        -34.9410   50.6770  -12.3590 N.3    26  VAL26      -0.1245
     14  CA       -34.9980   50.4040  -10.9140 C.3    26  VAL26       0.1561
     15  C        -34.9310   51.7300  -10.1390 C.2    26  VAL26       0.2260
     16  O        -34.0380   52.5430  -10.3670 O.2    26  VAL26      -0.2867
     17  CB       -33.8600   49.4620  -10.4450 C.3    26  VAL26       0.0252
     18  CG1      -33.9970   49.1530   -8.9480 C.3    26  VAL26       0.0019
     19  CG2      -33.8550   48.1750  -11.2620 C.3    26  VAL26       0.0019
     20  N        -35.5790   49.2240   -3.1540 N.3    39  ALA39      -0.1245
     21  CA       -35.3890   49.3060   -4.5900 C.3    39  ALA39       0.1562
     22  C        -36.7080   48.8300   -5.2210 C.2    39  ALA39       0.2260
     23  O        -37.2540   47.7940   -4.8250 O.2    39  ALA39      -0.2867
     24  CB       -34.2340   48.4330   -5.0240 C.3    39  ALA39       0.0290
     25  N        -38.1310   47.6510   -8.6980 N.3    41  LYS41      -0.1245
     26  CA       -38.1170   47.2330  -10.1040 C.3    41  LYS41       0.1561
     27  C        -39.5230   47.4210  -10.6640 C.2    41  LYS41       0.2260
     28  O        -40.4830   46.8850  -10.1120 O.2    41  LYS41      -0.2867
     29  CB       -37.7310   45.7570  -10.2520 C.3    41  LYS41       0.0271
     30  CG       -36.3840   45.3660   -9.6650 C.3    41  LYS41       0.0035
     31  CD       -36.1080   43.8640   -9.8290 C.3    41  LYS41       0.0206
     32  CE       -35.4200   43.5500  -11.1310 C.3    41  LYS41       0.1093
     33  NZ       -34.9080   42.1340  -11.2160 N.3    41  LYS41      -0.1314
     34  N        -37.8090   45.4420   -3.1360 N.3    86  ILE86      -0.1231
     35  CA       -36.7490   44.5820   -2.6290 C.3    86  ILE86       0.1692
     36  C        -35.9800   45.3730   -1.5820 C.2    86  ILE86       0.2592
     37  O        -35.8470   46.5940   -1.7090 O.2    86  ILE86      -0.2718
     38  CB       -35.8110   44.1830   -3.8030 C.3    86  ILE86       0.0266
     39  CG1      -36.5880   43.3500   -4.8320 C.3    86  ILE86       0.0019
     40  CG2      -34.5480   43.4520   -3.3030 C.3    86  ILE86       0.0020
     41  CD1      -36.2490   43.7010   -6.2750 C.3    86  ILE86       0.0001
     42  N        -35.4750   44.6990   -0.5480 N.am   87  GLU87      -0.1966
     43  CA       -34.8110   45.4320    0.5060 C.3    87  GLU87       0.1733
     44  C        -33.6210   46.1880   -0.0260 C.2    87  GLU87       0.2616
     45  O        -32.9840   45.7850   -1.0000 O.2    87  GLU87      -0.2715
     46  CB       -34.4730   44.5830    1.7480 C.3    87  GLU87       0.0429
     47  CG       -33.3360   43.6560    1.6620 C.3    87  GLU87       0.1163
     48  CD       -33.0340   42.9780    3.0020 C.2    87  GLU87       0.3649
     49  OE1      -32.8230   41.7460    2.9880 O.co2  87  GLU87      -0.2457
     50  OE2      -32.9760   43.6600    4.0650 O.co2  87  GLU87      -0.2457
     51  N        -33.3630   47.3110    0.6270 N.am   88  PHE88      -0.1960
     52  CA       -32.4100   48.2870    0.1660 C.3    88  PHE88       0.1771
     53  C        -31.0610   48.0710    0.8660 C.2    88  PHE88       0.2620
     54  O        -30.9790   47.8840    2.0870 O.2    88  PHE88      -0.2715
     55  CB       -32.9550   49.6990    0.4190 C.3    88  PHE88       0.0574
     56  CG       -32.1210   50.7820   -0.1740 C.ar   88  PHE88      -0.0200
     57  CD1      -32.0790   50.9630   -1.5510 C.ar   88  PHE88      -0.0042
     58  CD2      -31.3580   51.6110    0.6330 C.ar   88  PHE88      -0.0042
     59  CE1      -31.2790   51.9610   -2.1160 C.ar   88  PHE88      -0.0003
     60  CE2      -30.5700   52.6160    0.0820 C.ar   88  PHE88      -0.0003
     61  CZ       -30.5260   52.7870   -1.2960 C.ar   88  PHE88      -0.0000
     62  N        -30.0130   48.0960    0.0570 N.am   89  CYS89      -0.1954
     63  CA       -28.6300   47.9300    0.4890 C.3    89  CYS89       0.1843
     64  C        -27.9550   49.2440    0.1210 C.2    89  CYS89       0.2625
     65  O        -27.7450   49.5320   -1.0550 O.2    89  CYS89      -0.2714
     66  CB       -27.9890   46.7320   -0.2170 C.3    89  CYS89       0.0997
     67  SG       -28.7920   45.1150    0.1670 S.3    89  CYS89      -0.0797
     68  N        -27.6510   50.0430    1.1370 N.am   90  ALA90      -0.1963
     69  CA       -27.2690   51.4470    0.9510 C.3    90  ALA90       0.1728
     70  C        -25.8710   51.6730    0.3590 C.2    90  ALA90       0.2617
     71  O        -25.5670   52.7860   -0.0730 O.2    90  ALA90      -0.2715
     72  CB       -27.4000   52.1960    2.2720 C.3    90  ALA90       0.0334
     73  N        -25.0410   50.6270    0.3310 N.am   91  GLY91      -0.1940
     74  CA       -23.6820   50.7130   -0.2130 C.3    91  GLY91       0.2014
     75  C        -23.5600   50.5100   -1.7190 C.2    91  GLY91       0.2639
     76  O        -22.5310   50.8320   -2.2980 O.2    91  GLY91      -0.2714
     77  N        -24.5920   49.9780   -2.3660 N.am   92  GLY92      -0.1939
     78  CA       -24.5600   49.7860   -3.8210 C.3    92  GLY92       0.2014
     79  C        -23.9290   48.4780   -4.2420 C.2    92  GLY92       0.2638
     80  O        -23.5450   47.6680   -3.4000 O.2    92  GLY92      -0.2714
     81  N        -23.8290   48.2660   -5.5530 N.am   93  ALA93      -0.1977
     82  CA       -23.2500   47.0270   -6.0960 C.3    93  ALA93       0.1597
     83  C        -21.7270   47.0700   -6.0120 C.2    93  ALA93       0.2287
     84  O        -21.1280   48.1470   -6.1060 O.2    93  ALA93      -0.2864
     85  CB       -23.7070   46.8020   -7.5330 C.3    93  ALA93       0.0319
     86  N        -20.0590   48.7390   -9.0660 N.3    96  ALA96      -0.1245
     87  CA       -20.2580   50.1880   -9.0830 C.3    96  ALA96       0.1562
     88  C        -19.2710   50.9040   -8.1590 C.2    96  ALA96       0.2260
     89  O        -18.7580   51.9730   -8.5090 O.2    96  ALA96      -0.2867
     90  CB       -21.7070   50.5250   -8.7140 C.3    96  ALA96       0.0290
     91  N        -21.9010   42.7740  -10.0100 N.3   137  GLY137     -0.1210
     92  CA       -23.0580   43.6380  -10.1550 C.3   137  GLY137      0.1956
     93  C        -24.3060   43.1950   -9.4240 C.2   137  GLY137      0.2611
     94  O        -25.2420   43.9880   -9.3080 O.2   137  GLY137     -0.2717
     95  N        -24.3360   41.9450   -8.9480 N.am  138  ASN138     -0.1974
     96  CA       -25.4730   41.3900   -8.1910 C.3   138  ASN138      0.1688
     97  C        -25.1340   41.0700   -6.7330 C.2   138  ASN138      0.2292
     98  O        -25.8560   40.3360   -6.0670 O.2   138  ASN138     -0.2864
     99  CB       -26.0020   40.1170   -8.8750 C.3   138  ASN138      0.1181
    100  CG       -26.7710   40.4040  -10.1440 C.2   138  ASN138      0.2629
    101  OD1      -27.3520   41.4740  -10.3040 O.2   138  ASN138     -0.2716
    102  ND2      -26.8110   39.4330  -11.0390 N.am  138  ASN138     -0.0877
    103  N        -24.4700   43.2190   -3.3670 N.3   140  LEU140     -0.1245
    104  CA       -24.7560   44.5590   -2.8840 C.3   140  LEU140      0.1561
    105  C        -24.2280   44.7160   -1.4710 C.2   140  LEU140      0.2260
    106  O        -24.3410   43.8010   -0.6520 O.2   140  LEU140     -0.2867
    107  CB       -26.2660   44.8360   -2.8940 C.3   140  LEU140      0.0270
    108  CG       -27.0100   44.5520   -4.1990 C.3   140  LEU140      0.0019
    109  CD1      -28.5350   44.7540   -4.0110 C.3   140  LEU140      0.0001
    110  CD2      -26.4630   45.4080   -5.3490 C.3   140  LEU140      0.0001
    111  N        -28.3700   39.3850   -4.9420 N.3   150  ALA150     -0.1231
    112  CA       -29.5990   39.8490   -5.5860 C.3   150  ALA150      0.1694
    113  C        -29.7340   39.3500   -7.0170 C.2   150  ALA150      0.2592
    114  O        -28.8710   38.6480   -7.5440 O.2   150  ALA150     -0.2718
    115  CB       -29.6880   41.3630   -5.5480 C.3   150  ALA150      0.0304
    116  N        -30.8790   39.7000   -7.5960 N.am  151  ASP151     -0.1974
    117  CA       -31.2830   39.4070   -8.9660 C.3   151  ASP151      0.1709
    118  C        -31.4870   37.9300   -9.3050 C.2   151  ASP151      0.2293
    119  O        -30.5870   37.2570   -9.7940 O.2   151  ASP151     -0.2864
    120  CB       -30.3450   40.0570   -9.9630 C.3   151  ASP151      0.1436
    121  CG       -31.0000   40.2770  -11.3130 C.2   151  ASP151      0.3671
    122  OD1      -32.1170   39.7760  -11.5500 O.co2 151  ASP151     -0.2456
    123  OD2      -30.3930   40.9710  -12.1450 O.co2 151  ASP151     -0.2456
@<TRIPOS>BOND
     1    11    12    2
     2    11    10    1
     3    10     9    1
     4    13    14    1
     5   123   121   ar
     6   122   121   ar
     7   121   120    1
     8    19    17    1
     9    33    32    1
    10     9     3   am
    11    32    31    1
    12   102   100   am
    13    14    17    1
    14    14    15    1
    15    27    28    2
    16    27    26    1
    17    17    18    1
    18    16    15    2
    19     4     3    2
    20   101   100    2
    21    29    26    1
    22    29    30    1
    23     3     2    1
    24    92    91    1
    25    92    93    1
    26   100    99    1
    27    26    25    1
    28   120   117    1
    29    31    30    1
    30   119   118    2
    31    93    94    2
    32    93    95   am
    33     1     2    1
    34   118   117    1
    35    87    86    1
    36    87    90    1
    37    87    88    1
    38     2     5    1
    39   117   116    1
    40    95    96    1
    41    99    96    1
    42    89    88    2
    43    96    97    1
    44     5     6    1
    45   116   113   am
    46   114   113    2
    47    85    82    1
    48   113   112    1
    49    97    98    2
    50     6     8    1
    51     6     7    1
    52    41    39    1
    53    84    83    2
    54    82    83    1
    55    82    81    1
    56   112   115    1
    57   112   111    1
    58    81    79   am
    59   110   108    1
    60    22    23    2
    61    22    21    1
    62    24    21    1
    63    39    38    1
    64    21    20    1
    65    79    78    1
    66    79    80    2
    67   108   109    1
    68   108   107    1
    69    78    77    1
    70    38    40    1
    71    38    35    1
    72   103   104    1
    73    34    35    1
    74   107   104    1
    75   104   105    1
    76    35    36    1
    77    77    75   am
    78    76    75    2
    79    59    57   ar
    80    59    61   ar
    81    75    74    1
    82    37    36    2
    83    36    42   am
    84    57    56   ar
    85   105   106    2
    86    61    60   ar
    87    65    64    2
    88    45    44    2
    89    42    43    1
    90    66    67    1
    91    66    63    1
    92    74    73    1
    93    56    55    1
    94    56    58   ar
    95    71    70    2
    96    44    43    1
    97    44    51   am
    98    62    63    1
    99    62    53   am
   100    60    58   ar
   101    64    63    1
   102    64    68   am
   103    52    55    1
   104    52    51    1
   105    52    53    1
   106    73    70   am
   107    70    69    1
   108    43    46    1
   109    53    54    2
   110    69    68    1
   111    69    72    1
   112    47    46    1
   113    47    48    1
   114    49    48   ar
   115    48    50   ar
