@<TRIPOS>MOLECULE
tmp/2uv5A00.pdb
 124 118 0 0 0
SMALL
GASTEIGER

@<TRIPOS>ATOM
      1  N         15.9800   24.5000   37.8250 N.3    20  THR20      -0.1218
      2  CA        15.1490   25.6540   37.5130 C.3    20  THR20       0.1862
      3  C         13.8270   25.4540   38.1920 C.2    20  THR20       0.2287
      4  O         13.2210   24.4080   38.0180 O.2    20  THR20      -0.2866
      5  CB        14.9150   25.7940   36.0030 C.3    20  THR20       0.1770
      6  OG1       16.1880   25.9130   35.3680 O.3    20  THR20      -0.2211
      7  CG2       14.0330   27.0570   35.6720 C.3    20  THR20       0.0375
      8  N         11.3410   28.1560   38.4220 N.3    22  ALA22      -0.1231
      9  CA        10.4030   29.2010   37.9930 C.3    22  ALA22       0.1694
     10  C         10.1690   29.0970   36.4890 C.2    22  ALA22       0.2592
     11  O         11.0780   28.7160   35.7180 O.2    22  ALA22      -0.2718
     12  CB        10.9600   30.5730   38.3350 C.3    22  ALA22       0.0304
     13  N          8.9520   29.4310   36.0630 N.am   23  ASN23      -0.1960
     14  CA         8.6450   29.6130   34.6480 C.3    23  ASN23       0.1819
     15  C          8.7620   28.3510   33.8000 C.2    23  ASN23       0.2621
     16  O          8.9230   28.4360   32.5750 O.2    23  ASN23      -0.2715
     17  CB         9.4800   30.7450   34.0730 C.3    23  ASN23       0.1195
     18  CG         9.1990   32.0660   34.7460 C.2    23  ASN23       0.2630
     19  OD1        8.1150   32.2480   35.3360 O.2    23  ASN23      -0.2716
     20  ND2       10.1200   33.0200   34.5930 N.am   23  ASN23      -0.0877
     21  N          8.6210   27.1930   34.4550 N.am   24  ILE24      -0.1963
     22  CA         8.6450   25.8990   33.7720 C.3    24  ILE24       0.1727
     23  C          7.4900   25.7630   32.7630 C.2    24  ILE24       0.2616
     24  O          6.3020   25.9740   33.0840 O.2    24  ILE24      -0.2715
     25  CB         8.5660   24.7070   34.7730 C.3    24  ILE24       0.0290
     26  CG1        9.7720   24.6950   35.7430 C.3    24  ILE24       0.0022
     27  CG2        8.4650   23.4120   34.0250 C.3    24  ILE24       0.0023
     28  CD1       11.1360   24.8240   35.1010 C.3    24  ILE24       0.0001
     29  N          7.8570   25.3630   31.5530 N.am   25  ALA25      -0.1977
     30  CA         6.8650   25.0610   30.5120 C.3    25  ALA25       0.1597
     31  C          6.5220   23.5770   30.5770 C.2    25  ALA25       0.2287
     32  O          7.4080   22.7190   30.7180 O.2    25  ALA25      -0.2864
     33  CB         7.3910   25.4320   29.1310 C.3    25  ALA25       0.0319
     34  N         12.6800   25.5090   24.5020 N.3    45  VAL45      -0.1231
     35  CA        12.8340   24.5860   25.6400 C.3    45  VAL45       0.1692
     36  C         13.1140   23.2450   24.9940 C.2    45  VAL45       0.2593
     37  O         12.5710   22.9860   23.9420 O.2    45  VAL45      -0.2718
     38  CB        11.5220   24.2600   26.3770 C.3    45  VAL45       0.0266
     39  CG1       11.7290   24.2400   27.8780 C.3    45  VAL45       0.0020
     40  CG2       10.3800   25.0850   25.9240 C.3    45  VAL45       0.0020
     41  N         13.8670   22.3480   25.6270 N.am   46  SER46      -0.1938
     42  CA        14.0880   21.0560   24.9770 C.3    46  SER46       0.2055
     43  C         13.2120   19.9030   25.4620 C.2    46  SER46       0.2642
     44  O         13.1310   18.8900   24.7770 O.2    46  SER46      -0.2714
     45  CB        15.5670   20.6720   24.9970 C.3    46  SER46       0.2130
     46  OG        16.1350   20.9630   26.2470 O.3    46  SER46      -0.2179
     47  N         12.5160   20.0590   26.5880 N.am   47  ALA47      -0.1977
     48  CA        11.6560   18.9790   27.1220 C.3    47  ALA47       0.1597
     49  C         10.5900   19.5330   28.0510 C.2    47  ALA47       0.2287
     50  O         10.8030   20.5340   28.7320 O.2    47  ALA47      -0.2864
     51  CB        12.4800   17.9140   27.8110 C.3    47  ALA47       0.0319
     52  N          7.5940   18.5650   30.9190 N.3    49  PRO49      -0.2116
     53  CA         6.8830   17.6520   31.7960 C.3    49  PRO49       0.1372
     54  C          5.4600   17.4850   31.2670 C.2    49  PRO49       0.2244
     55  O          4.8830   18.4600   30.7450 O.2    49  PRO49      -0.2868
     56  CB         6.9030   18.3670   33.1440 C.3    49  PRO49       0.0268
     57  CG         8.1210   19.2120   33.0930 C.3    49  PRO49       0.0207
     58  CD         8.1950   19.6900   31.6610 C.3    49  PRO49       0.0892
     59  N         18.3490   12.9920   29.9590 N.3   118  HIS118     -0.1226
     60  CA        19.0790   14.2570   30.0370 C.3   118  HIS118      0.1752
     61  C         18.4830   15.2560   31.0330 C.2   118  HIS118      0.2595
     62  O         18.9790   16.3730   31.1760 O.2   118  HIS118     -0.2718
     63  CB        19.1100   14.8850   28.6430 C.3   118  HIS118      0.0759
     64  CG        19.9510   14.1210   27.6680 C.ar  118  HIS118      0.0818
     65  ND1       20.2430   14.5980   26.4100 N.ar  118  HIS118     -0.2268
     66  CD2       20.5780   12.9230   27.7740 C.ar  118  HIS118      0.1154
     67  CE1       20.9990   13.7140   25.7750 C.ar  118  HIS118      0.1986
     68  NE2       21.2160   12.6900   26.5800 N.ar  118  HIS118     -0.2212
     69  N         17.3910   14.8560   31.6810 N.am  119  ARG119     -0.1980
     70  CA        16.7860   15.6660   32.7300 C.3   119  ARG119      0.1597
     71  C         15.8070   14.8680   33.5810 C.2   119  ARG119      0.2287
     72  O         15.3220   13.7980   33.1850 O.2   119  ARG119     -0.2864
     73  CB        16.0470   16.8890   32.1650 C.3   119  ARG119      0.0334
     74  CG        14.7070   16.5970   31.5090 C.3   119  ARG119      0.0492
     75  CD        14.8060   15.9770   30.1340 C.3   119  ARG119      0.2205
     76  NE        15.5220   16.8080   29.1790 N.pl3 119  ARG119     -0.0865
     77  CZ        15.7360   16.4800   27.9070 C.cat 119  ARG119      0.5346
     78  NH1       15.2630   15.3410   27.4160 N.pl3 119  ARG119      0.1354
     79  NH2       16.4180   17.3080   27.1290 N.pl3 119  ARG119      0.1354
     80  N         12.8640   21.5500   37.3390 N.3   132  ILE132     -0.1245
     81  CA        13.5890   20.6930   36.4350 C.3   132  ILE132      0.1561
     82  C         15.0800   20.7590   36.7280 C.2   132  ILE132      0.2260
     83  O         15.6500   21.8540   36.9670 O.2   132  ILE132     -0.2867
     84  CB        13.4240   21.1160   34.9490 C.3   132  ILE132      0.0252
     85  CG1       11.9610   21.1430   34.5220 C.3   132  ILE132      0.0019
     86  CG2       14.1800   20.1450   34.0440 C.3   132  ILE132      0.0019
     87  CD1       11.4070   19.8020   34.0800 C.3   132  ILE132      0.0001
     88  N         18.4540   19.4880   34.6100 N.3   134  SER134     -0.1202
     89  CA        18.9900   18.9340   33.3730 C.3   134  SER134      0.2020
     90  C         20.5100   18.8140   33.4700 C.2   134  SER134      0.2619
     91  O         21.1510   19.2730   34.4460 O.2   134  SER134     -0.2717
     92  CB        18.6330   19.8460   32.1950 C.3   134  SER134      0.2103
     93  OG        19.3280   21.0570   32.3510 O.3   134  SER134     -0.2182
     94  N         21.1090   18.2380   32.4370 N.am  135  LEU135     -0.1965
     95  CA        22.5650   18.0660   32.4420 C.3   135  LEU135      0.1728
     96  C         23.2440   19.4260   32.6360 C.2   135  LEU135      0.2617
     97  O         24.2250   19.5570   33.3960 O.2   135  LEU135     -0.2715
     98  CB        23.0370   17.4390   31.1270 C.3   135  LEU135      0.0311
     99  CG        22.4050   16.1100   30.6620 C.3   135  LEU135      0.0022
    100  CD1       23.0470   15.6090   29.3420 C.3   135  LEU135      0.0001
    101  CD2       22.5020   15.0550   31.7580 C.3   135  LEU135      0.0001
    102  N         22.7200   20.4550   31.9620 N.am  136  SER136     -0.1936
    103  CA        23.3030   21.7970   32.0730 C.3   136  SER136      0.2055
    104  C         23.4260   22.2810   33.5290 C.2   136  SER136      0.2643
    105  O         24.4640   22.8170   33.9530 O.2   136  SER136     -0.2714
    106  CB        22.5070   22.7700   31.2240 C.3   136  SER136      0.2130
    107  OG        22.5830   22.3470   29.8700 O.3   136  SER136     -0.2179
    108  N         22.3730   22.0570   34.3010 N.am  137  ASP137     -0.1971
    109  CA        22.3320   22.4590   35.6960 C.3   137  ASP137      0.1709
    110  C         23.3680   21.7050   36.5280 C.2   137  ASP137      0.2293
    111  O         23.9920   22.2860   37.4270 O.2   137  ASP137     -0.2864
    112  CB        20.9590   22.1630   36.2850 C.3   137  ASP137      0.1436
    113  CG        19.8350   22.9330   35.5910 C.2   137  ASP137      0.3671
    114  OD1       20.0240   24.1340   35.3720 O.co2 137  ASP137     -0.2456
    115  OD2       18.7780   22.3370   35.2610 O.co2 137  ASP137     -0.2456
    116  N         26.9090   23.0820   35.6250 N.3   140  GLN140     -0.1245
    117  CA        27.0950   24.4220   36.2250 C.3   140  GLN140      0.1566
    118  C         27.6030   24.3350   37.6460 C.2   140  GLN140      0.2260
    119  O         28.4650   25.1150   38.0600 O.2   140  GLN140     -0.2867
    120  CB        25.7760   25.2120   36.2580 C.3   140  GLN140      0.0367
    121  CG        25.4180   25.9190   34.9780 C.3   140  GLN140      0.0905
    122  CD        23.9520   26.3620   34.9580 C.2   140  GLN140      0.2608
    123  OE1       23.3710   26.6800   36.0060 O.2   140  GLN140     -0.2717
    124  NE2       23.3460   26.3720   33.7660 N.am  140  GLN140     -0.0878
@<TRIPOS>BOND
     1    37    36    2
     2    34    35    1
     3    44    43    2
     4    42    45    1
     5    42    43    1
     6    42    41    1
     7    36    41   am
     8    36    35    1
     9    45    46    1
    10    43    47   am
    11    35    38    1
    12    67    65   ar
    13    67    68   ar
    14    40    38    1
    15    38    39    1
    16    65    64   ar
    17    68    66   ar
    18    47    48    1
    19    48    51    1
    20    48    49    1
    21    79    77    1
    22    78    77    1
    23    64    66   ar
    24    64    63    1
    25    77    76    2
    26    49    50    2
    27    63    60    1
    28    33    30    1
    29    76    75    1
    30   100    99    1
    31   107   106    1
    32    59    60    1
    33    60    61    1
    34    75    74    1
    35    30    31    1
    36    30    29    1
    37    31    32    2
    38    99    98    1
    39    99   101    1
    40    55    54    2
    41    52    58    1
    42    52    53    1
    43    61    62    2
    44    61    69   am
    45    98    95    1
    46   106   103    1
    47    54    53    1
    48    74    73    1
    49    29    23   am
    50    58    57    1
    51    69    70    1
    52    53    56    1
    53   102   103    1
    54   102    96   am
    55   103   104    1
    56    73    70    1
    57    92    93    1
    58    92    89    1
    59    94    95    1
    60    94    90   am
    61    95    96    1
    62    16    15    2
    63    96    97    2
    64    70    71    1
    65    23    24    2
    66    23    22    1
    67    57    56    1
    68    72    71    2
    69    89    90    1
    70    89    88    1
    71    90    91    2
    72   104   105    2
    73   104   108   am
    74   124   122   am
    75    22    21    1
    76    22    25    1
    77    15    21   am
    78    15    14    1
    79    27    25    1
    80    86    84    1
    81    17    14    1
    82    17    18    1
    83    87    85    1
    84   108   109    1
    85    85    84    1
    86    20    18   am
    87    14    13    1
    88    18    19    2
    89    25    26    1
    90    84    81    1
    91   122   121    1
    92   122   123    2
    93   121   120    1
    94    28    26    1
    95   115   113   ar
    96     6     5    1
    97   114   113   ar
    98   113   112    1
    99   116   117    1
   100     7     5    1
   101   109   112    1
   102   109   110    1
   103    11    10    2
   104     5     2    1
   105    13    10   am
   106   117   120    1
   107   117   118    1
   108    81    82    1
   109    81    80    1
   110    10     9    1
   111   110   111    2
   112    82    83    2
   113     2     1    1
   114     2     3    1
   115   118   119    2
   116     9    12    1
   117     9     8    1
   118     4     3    2
