@<TRIPOS>MOLECULE
tmp/2uvfA00.pdb
 162 153 0 0 0
SMALL
GASTEIGER

@<TRIPOS>ATOM
      1  N          2.4570   14.4650  106.6060 N.3   197  LEU197     -0.1231
      2  CA         2.2800   15.2380  105.3770 C.3   197  LEU197      0.1693
      3  C          2.3350   16.7490  105.6100 C.2   197  LEU197      0.2592
      4  O          3.1080   17.4640  104.9540 O.2   197  LEU197     -0.2718
      5  CB         0.9700   14.8510  104.6750 C.3   197  LEU197      0.0284
      6  CG         0.7480   15.3010  103.2240 C.3   197  LEU197      0.0019
      7  CD1        1.7350   14.6080  102.3010 C.3   197  LEU197      0.0001
      8  CD2       -0.6780   14.9770  102.8230 C.3   197  LEU197      0.0001
      9  N          1.5160   17.2280  106.5400 N.am  198  TYR198     -0.1976
     10  CA         1.4900   18.6460  106.8880 C.3   198  TYR198      0.1639
     11  C          1.8690   18.8260  108.3640 C.2   198  TYR198      0.2290
     12  O          1.8550   17.8460  109.1200 O.2   198  TYR198     -0.2864
     13  CB         0.1330   19.2690  106.5470 C.3   198  TYR198      0.0560
     14  CG        -0.2440   19.0930  105.0870 C.ar  198  TYR198     -0.0198
     15  CD1        0.6190   19.5010  104.0650 C.ar  198  TYR198     -0.0009
     16  CD2       -1.4470   18.4980  104.7310 C.ar  198  TYR198     -0.0009
     17  CE1        0.2840   19.3290  102.7370 C.ar  198  TYR198      0.0417
     18  CE2       -1.7840   18.3110  103.4090 C.ar  198  TYR198      0.0417
     19  CZ        -0.9130   18.7240  102.4090 C.ar  198  TYR198      0.1957
     20  OH        -1.2620   18.5310  101.0830 O.3   198  TYR198     -0.2866
     21  N          3.0330    8.6610  108.9190 N.3   205  ARG205     -0.1245
     22  CA         3.0410    7.7280  107.7940 C.3   205  ARG205      0.1563
     23  C          4.3680    6.9740  107.7580 C.2   205  ARG205      0.2260
     24  O          5.3890    7.4920  108.2190 O.2   205  ARG205     -0.2867
     25  CB         2.8030    8.4890  106.4850 C.3   205  ARG205      0.0307
     26  CG         1.4000    9.0100  106.3540 C.3   205  ARG205      0.0489
     27  CD         1.2580    9.8920  105.1450 C.3   205  ARG205      0.2205
     28  NE        -0.1420   10.1000  104.8000 N.pl3 205  ARG205     -0.0865
     29  CZ        -0.5660   10.6130  103.6490 C.cat 205  ARG205      0.5346
     30  NH1        0.2930   10.9810  102.7050 N.pl3 205  ARG205      0.1354
     31  NH2       -1.8570   10.7510  103.4390 N.pl3 205  ARG205      0.1354
     32  N         -3.5690    5.8930  105.4110 N.3   293  GLN293     -0.1245
     33  CA        -2.3620    6.5360  105.9410 C.3   293  GLN293      0.1566
     34  C         -1.1160    5.6560  106.0470 C.2   293  GLN293      0.2260
     35  O          0.0010    6.1570  106.0450 O.2   293  GLN293     -0.2867
     36  CB        -2.6520    7.2010  107.3130 C.3   293  GLN293      0.0367
     37  CG        -3.8530    8.1460  107.3600 C.3   293  GLN293      0.0905
     38  CD        -3.7660    9.3040  106.3550 C.2   293  GLN293      0.2608
     39  OE1       -4.7720    9.7830  105.8790 O.2   293  GLN293     -0.2717
     40  NE2       -2.5730    9.7400  106.0440 N.am  293  GLN293     -0.0878
     41  N          1.2650    2.7750   97.9300 N.3   319  PHE319     -0.1227
     42  CA         0.3680    3.9230   98.1100 C.3   319  PHE319      0.1736
     43  C          0.5870    4.8510   96.8900 C.2   319  PHE319      0.2595
     44  O          0.1650    4.4870   95.7630 O.2   319  PHE319     -0.2718
     45  CB         0.6360    4.5570   99.4780 C.3   319  PHE319      0.0547
     46  CG        -0.3420    5.6430   99.9030 C.ar  319  PHE319     -0.0202
     47  CD1       -1.6920    5.5580   99.6430 C.ar  319  PHE319     -0.0042
     48  CD2        0.1250    6.7490  100.6010 C.ar  319  PHE319     -0.0042
     49  CE1       -2.5810    6.5680  100.0680 C.ar  319  PHE319     -0.0003
     50  CE2       -0.7580    7.7700  101.0250 C.ar  319  PHE319     -0.0003
     51  CZ        -2.1090    7.6760  100.7550 C.ar  319  PHE319     -0.0000
     52  N          1.2920    5.9700   97.0730 N.am  320  HIS320     -0.1975
     53  CA         1.5510    6.9400   95.9970 C.3   320  HIS320      0.1656
     54  C          2.8290    6.5750   95.2540 C.2   320  HIS320      0.2291
     55  O          3.6130    5.7610   95.7270 O.2   320  HIS320     -0.2864
     56  CB         1.7290    8.3860   96.5280 C.3   320  HIS320      0.0771
     57  CG         0.5650    8.9380   97.3050 C.ar  320  HIS320      0.0820
     58  ND1       -0.7520    8.7480   96.9410 N.ar  320  HIS320     -0.2267
     59  CD2        0.5340    9.7430   98.3910 C.ar  320  HIS320      0.1154
     60  CE1       -1.5430    9.3830   97.7840 C.ar  320  HIS320      0.1986
     61  NE2       -0.7860   10.0050   98.6680 N.ar  320  HIS320     -0.2212
     62  N          7.7850   17.0570   98.5360 N.3   325  LEU325     -0.1245
     63  CA         7.1790   17.8550   99.5890 C.3   325  LEU325      0.1561
     64  C          8.1380   18.9860   99.9560 C.2   325  LEU325      0.2260
     65  O          9.2770   18.7400  100.3530 O.2   325  LEU325     -0.2867
     66  CB         6.8250   16.9770  100.8060 C.3   325  LEU325      0.0270
     67  CG         5.7570   15.8670  100.6510 C.3   325  LEU325      0.0019
     68  CD1        5.5640   15.1720  101.9600 C.3   325  LEU325      0.0001
     69  CD2        4.3940   16.3530  100.0930 C.3   325  LEU325      0.0001
     70  N         -4.6780    4.8970   94.6650 N.3   344  ASN344     -0.1240
     71  CA        -3.9390    6.1080   95.0580 C.3   344  ASN344      0.1653
     72  C         -2.5320    6.1980   94.4910 C.2   344  ASN344      0.2266
     73  O         -1.7140    7.0060   94.9600 O.2   344  ASN344     -0.2867
     74  CB        -3.9150    6.2760   96.5810 C.3   344  ASN344      0.1155
     75  CG        -5.2860    6.1460   97.1830 C.2   344  ASN344      0.2627
     76  OD1       -5.5100    5.2620   98.0000 O.2   344  ASN344     -0.2716
     77  ND2       -6.2380    6.9870   96.7330 N.am  344  ASN344     -0.0877
     78  N         -0.7110    7.7200   92.3130 N.3   346  ASP346     -0.1239
     79  CA        -0.5300    8.8400   91.3790 C.3   346  ASP346      0.1674
     80  C          0.9070    8.8650   90.8910 C.2   346  ASP346      0.2266
     81  O          1.7790    8.3020   91.5410 O.2   346  ASP346     -0.2867
     82  CB        -1.0390   10.2160   91.8950 C.3   346  ASP346      0.1410
     83  CG        -0.7890   10.4480   93.3530 C.2   346  ASP346      0.3668
     84  OD1        0.2230    9.8870   93.8780 O.co2 346  ASP346     -0.2456
     85  OD2       -1.5990   11.2160   93.9640 O.co2 346  ASP346     -0.2456
     86  N          3.4060   13.5660   92.7040 N.3   349  GLU349     -0.1245
     87  CA         2.8150   14.6200   93.5310 C.3   349  GLU349      0.1567
     88  C          3.7940   15.7620   93.7180 C.2   349  GLU349      0.2260
     89  O          4.9490   15.5200   94.0480 O.2   349  GLU349     -0.2867
     90  CB         2.4130   14.0960   94.9130 C.3   349  GLU349      0.0388
     91  CG         1.2850   13.1330   94.8860 C.3   349  GLU349      0.1160
     92  CD         0.8910   12.6740   96.2510 C.2   349  GLU349      0.3649
     93  OE1        1.5250   13.0830   97.2430 O.co2 349  GLU349     -0.2457
     94  OE2       -0.0730   11.9070   96.3340 O.co2 349  GLU349     -0.2457
     95  N         -3.7310    6.5220   89.7550 N.3   367  ASP367     -0.1225
     96  CA        -4.4790    7.7240   90.1510 C.3   367  ASP367      0.1805
     97  C         -4.1090    8.9070   89.2600 C.2   367  ASP367      0.2597
     98  O         -3.8570    8.7260   88.0530 O.2   367  ASP367     -0.2718
     99  CB        -4.2270    8.0470   91.6350 C.3   367  ASP367      0.1424
    100  CG        -5.4280    8.6910   92.2980 C.2   367  ASP367      0.3668
    101  OD1       -5.6140    9.9080   92.1140 O.co2 367  ASP367     -0.2456
    102  OD2       -6.1920    7.9800   92.9880 O.co2 367  ASP367     -0.2456
    103  N         -4.0820   10.1180   89.8270 N.am  368  ASP368     -0.1974
    104  CA        -3.7950   11.3210   89.0370 C.3   368  ASP368      0.1709
    105  C         -2.4080   11.1270   88.4490 C.2   368  ASP368      0.2293
    106  O         -1.5650   10.5050   89.0840 O.2   368  ASP368     -0.2864
    107  CB        -3.7870   12.5930   89.9000 C.3   368  ASP368      0.1436
    108  CG        -5.1460   12.9060   90.5270 C.2   368  ASP368      0.3671
    109  OD1       -6.1920   12.5050   89.9400 O.co2 368  ASP368     -0.2456
    110  OD2       -5.1730   13.5900   91.5890 O.co2 368  ASP368     -0.2456
    111  N         -0.1630   15.5950   90.0950 N.3   371  ASN371     -0.1240
    112  CA        -1.0220   16.2300   91.0710 C.3   371  ASN371      0.1653
    113  C         -0.2940   17.3800   91.7490 C.2   371  ASN371      0.2266
    114  O          0.8970   17.2780   92.0340 O.2   371  ASN371     -0.2867
    115  CB        -1.4510   15.2050   92.1240 C.3   371  ASN371      0.1155
    116  CG        -2.3970   15.7930   93.1400 C.2   371  ASN371      0.2627
    117  OD1       -1.9830   16.2720   94.1920 O.2   371  ASN371     -0.2716
    118  ND2       -3.6690   15.7830   92.8200 N.am  371  ASN371     -0.0877
    119  N         -0.5090   19.8660   95.1650 N.3   373  ALA373     -0.1245
    120  CA        -1.1290   20.0040   96.4780 C.3   373  ALA373      0.1562
    121  C         -0.5300   21.2140   97.2110 C.2   373  ALA373      0.2260
    122  O          0.6600   21.4920   97.0800 O.2   373  ALA373     -0.2867
    123  CB        -0.9030   18.7500   97.2870 C.3   373  ALA373      0.0290
    124  N         -6.2050    9.4380   86.4430 N.3   400  HIS400     -0.1241
    125  CA        -7.4250   10.1060   86.8610 C.3   400  HIS400      0.1621
    126  C         -7.4670   11.5470   86.3740 C.2   400  HIS400      0.2264
    127  O         -8.4850   12.2200   86.5050 O.2   400  HIS400     -0.2867
    128  CB        -7.5630   10.0730   88.3950 C.3   400  HIS400      0.0745
    129  CG        -7.8850    8.7300   88.9580 C.ar  400  HIS400      0.0817
    130  ND1       -7.6260    7.5510   88.2870 N.ar  400  HIS400     -0.2268
    131  CD2       -8.4200    8.3750   90.1520 C.ar  400  HIS400      0.1154
    132  CE1       -7.9980    6.5310   89.0390 C.ar  400  HIS400      0.1986
    133  NE2       -8.4660    7.0030   90.1820 N.ar  400  HIS400     -0.2212
    134  N         -6.0030   20.4800   93.0930 N.3   406  GLY406     -0.1210
    135  CA        -5.3300   19.2500   93.4500 C.3   406  GLY406      0.1956
    136  C         -6.2850   18.6360   94.4600 C.2   406  GLY406      0.2613
    137  O         -6.1830   17.4690   94.7790 O.2   406  GLY406     -0.2717
    138  N         -7.2400   19.4640   94.9010 N.am  407  SER407     -0.1938
    139  CA        -8.1610   19.2810   96.0720 C.3   407  SER407      0.2055
    140  C         -7.5650   19.8730   97.3430 C.2   407  SER407      0.2643
    141  O         -8.2150   20.6760   98.0020 O.2   407  SER407     -0.2714
    142  CB        -8.6610   17.8580   96.3040 C.3   407  SER407      0.2130
    143  OG        -8.9510   17.6520   97.6820 O.3   407  SER407     -0.2179
    144  N         -6.3310   19.4860   97.6590 N.am  408  HIS408     -0.1973
    145  CA        -5.5210   20.1870   98.6730 C.3   408  HIS408      0.1656
    146  C         -5.0350   21.5230   98.0910 C.2   408  HIS408      0.2291
    147  O         -3.9580   21.5870   97.5120 O.2   408  HIS408     -0.2864
    148  CB        -4.3190   19.3300   99.1360 C.3   408  HIS408      0.0771
    149  CG        -4.6930   18.1030   99.9190 C.ar  408  HIS408      0.0820
    150  ND1       -3.7320   17.2810  100.4950 N.ar  408  HIS408     -0.2267
    151  CD2       -5.9130   17.5700  100.2450 C.ar  408  HIS408      0.1154
    152  CE1       -4.3420   16.2900  101.1290 C.ar  408  HIS408      0.1986
    153  NE2       -5.6660   16.4420  100.9950 N.ar  408  HIS408     -0.2212
    154  N         -9.9980   20.7220   91.5420 N.3   433  LYS433     -0.1245
    155  CA       -10.9210   20.2930   92.6000 C.3   433  LYS433      0.1561
    156  C        -10.5740   20.9620   93.9200 C.2   433  LYS433      0.2260
    157  O         -9.4040   21.1110   94.2500 O.2   433  LYS433     -0.2867
    158  CB       -10.9150   18.7570   92.7500 C.3   433  LYS433      0.0271
    159  CG        -9.7000   18.0700   92.1090 C.3   433  LYS433      0.0035
    160  CD        -9.0770   16.9800   92.9800 C.3   433  LYS433      0.0206
    161  CE        -9.5110   15.5770   92.6150 C.3   433  LYS433      0.1093
    162  NZ        -8.4420   14.5870   93.0090 N.3   433  LYS433     -0.1314
@<TRIPOS>BOND
     1   126   127    2
     2   126   125    1
     3   124   125    1
     4   125   128    1
     5    98    97    2
     6   130   129   ar
     7   130   132   ar
     8   128   129    1
     9   105   104    1
    10   105   106    2
    11   129   131   ar
    12   104   103    1
    13   104   107    1
    14   132   133   ar
    15    97   103   am
    16    97    96    1
    17    95    96    1
    18   107   108    1
    19   109   108   ar
    20   111   112    1
    21    96    99    1
    22   131   133   ar
    23   108   110   ar
    24    80    79    1
    25    80    81    2
    26   112   113    1
    27   112   115    1
    28    79    82    1
    29    79    78    1
    30   154   155    1
    31    99   100    1
    32   113   114    2
    33    82    83    1
    34   159   158    1
    35   159   160    1
    36   101   100   ar
    37   115   116    1
    38   100   102   ar
    39   155   158    1
    40   155   156    1
    41   161   160    1
    42   161   162    1
    43    86    87    1
    44   118   116   am
    45   134   135    1
    46   116   117    2
    47    83    84   ar
    48    83    85   ar
    49   135   136    1
    50    87    88    1
    51    87    90    1
    52    88    89    2
    53   156   157    2
    54   136   137    2
    55   136   138   am
    56    72    73    2
    57    72    71    1
    58    70    71    1
    59    91    90    1
    60    91    92    1
    61   138   139    1
    62    71    74    1
    63   119   120    1
    64    54    55    2
    65    54    53    1
    66    44    43    2
    67    53    56    1
    68    53    52    1
    69   139   142    1
    70   139   140    1
    71    92    94   ar
    72    92    93   ar
    73   142   143    1
    74   120   121    1
    75   120   123    1
    76    56    57    1
    77    74    75    1
    78    77    75   am
    79    43    52   am
    80    43    42    1
    81    58    57   ar
    82    58    60   ar
    83   122   121    2
    84    75    76    2
    85    57    59   ar
    86   140   144   am
    87   140   141    2
    88   147   146    2
    89   144   145    1
    90    60    61   ar
    91    41    42    1
    92   146   145    1
    93    42    45    1
    94    59    61   ar
    95    62    63    1
    96   145   148    1
    97   148   149    1
    98    45    46    1
    99    63    64    1
   100    63    66    1
   101    47    46   ar
   102    47    49   ar
   103    46    48   ar
   104   149   151   ar
   105   149   150   ar
   106    64    65    2
   107    49    51   ar
   108    69    67    1
   109   151   153   ar
   110   150   152   ar
   111    48    50   ar
   112    67    66    1
   113    67    68    1
   114    51    50   ar
   115   153   152   ar
   116    20    19    1
   117     7     6    1
   118    19    17   ar
   119    19    18   ar
   120    30    29    1
   121    17    15   ar
   122     8     6    1
   123     6     5    1
   124    18    16   ar
   125    31    29    1
   126    29    28    2
   127    15    14   ar
   128     5     2    1
   129    16    14   ar
   130    28    27    1
   131     4     3    2
   132    14    13    1
   133    27    26    1
   134     2     3    1
   135     2     1    1
   136    32    33    1
   137     3     9   am
   138    39    38    2
   139    33    34    1
   140    33    36    1
   141    40    38   am
   142    35    34    2
   143    26    25    1
   144    38    37    1
   145    25    22    1
   146     9    10    1
   147    13    10    1
   148    10    11    1
   149    36    37    1
   150    23    22    1
   151    23    24    2
   152    22    21    1
   153    11    12    2
