@<TRIPOS>MOLECULE
tmp/2uvhA01.pdb
 145 138 0 0 0
SMALL
GASTEIGER

@<TRIPOS>ATOM
      1  N         13.9900    9.6620   37.6020 N.3     9  TRP9       -0.1227
      2  CA        13.7980   11.1180   37.5220 C.3     9  TRP9        0.1737
      3  C         14.6040   11.8290   38.6240 C.2     9  TRP9        0.2596
      4  O         15.0640   11.1960   39.5670 O.2     9  TRP9       -0.2718
      5  CB        12.3040   11.5000   37.6110 C.3     9  TRP9        0.0564
      6  CG        11.8190   11.4650   39.0200 C.ar    9  TRP9        0.0003
      7  CD1       11.8580   12.4970   39.9350 C.ar    9  TRP9        0.0946
      8  CD2       11.2220   10.3420   39.6980 C.ar    9  TRP9        0.0152
      9  NE1       11.3730   12.0620   41.1520 N.ar    9  TRP9       -0.2442
     10  CE2       10.9560   10.7490   41.0280 C.ar    9  TRP9        0.0810
     11  CE3       10.9130    9.0130   39.3170 C.ar    9  TRP9        0.0012
     12  CZ2       10.3820    9.8800   41.9720 C.ar    9  TRP9        0.0191
     13  CZ3       10.3340    8.1600   40.2710 C.ar    9  TRP9        0.0001
     14  CH2       10.0810    8.5870   41.5570 C.ar    9  TRP9        0.0015
     15  N         14.7750   13.1350   38.4980 N.am   10  GLY10      -0.1957
     16  CA        15.3400   13.9940   39.5620 C.3    10  GLY10       0.1869
     17  C         16.0620   15.2190   38.9620 C.2    10  GLY10       0.2309
     18  O         16.0050   15.4350   37.7580 O.2    10  GLY10      -0.2863
     19  N         21.2290   14.6470   41.2040 N.3    14  ARG14      -0.1245
     20  CA        20.8430   13.2230   41.2540 C.3    14  ARG14       0.1563
     21  C         21.2160   12.5000   39.9860 C.2    14  ARG14       0.2260
     22  O         21.7080   11.3860   40.0470 O.2    14  ARG14      -0.2867
     23  CB        19.3510   13.0290   41.5940 C.3    14  ARG14       0.0307
     24  CG        18.8620   11.5690   41.4620 C.3    14  ARG14       0.0489
     25  CD        17.3890   11.4680   41.7090 C.3    14  ARG14       0.2205
     26  NE        17.0480   11.9560   43.0380 N.pl3  14  ARG14      -0.0865
     27  CZ        15.8210   12.2490   43.4270 C.cat  14  ARG14       0.5346
     28  NH1       14.7980   12.0940   42.5710 N.pl3  14  ARG14       0.1354
     29  NH2       15.5920   12.6960   44.6510 N.pl3  14  ARG14       0.1354
     30  N         11.1590   15.2690   37.0960 N.3    41  TRP41      -0.1241
     31  CA         9.8460   14.7400   37.4570 C.3    41  TRP41       0.1605
     32  C          8.7780   14.9510   36.3790 C.2    41  TRP41       0.2264
     33  O          8.0310   14.0250   36.0530 O.2    41  TRP41      -0.2867
     34  CB         9.3350   15.4090   38.7420 C.3    41  TRP41       0.0550
     35  CG         7.9430   15.0040   39.1070 C.ar   41  TRP41       0.0003
     36  CD1        6.8210   15.7960   39.1130 C.ar   41  TRP41       0.0946
     37  CD2        7.5190   13.6960   39.5270 C.ar   41  TRP41       0.0152
     38  NE1        5.7030   15.0530   39.4970 N.ar   41  TRP41      -0.2442
     39  CE2        6.1170   13.7640   39.7700 C.ar   41  TRP41       0.0810
     40  CE3        8.1940   12.4740   39.7500 C.ar   41  TRP41       0.0012
     41  CZ2        5.3880   12.6570   40.2150 C.ar   41  TRP41       0.0191
     42  CZ3        7.4620   11.3700   40.1830 C.ar   41  TRP41       0.0001
     43  CH2        6.0730   11.4720   40.4210 C.ar   41  TRP41       0.0015
     44  N          7.4500    5.4860   42.0690 N.3    64  ASN64      -0.1240
     45  CA         6.8150    6.2220   43.1170 C.3    64  ASN64       0.1653
     46  C          5.7870    5.3290   43.7650 C.2    64  ASN64       0.2266
     47  O          5.1940    4.4640   43.1280 O.2    64  ASN64      -0.2867
     48  CB         6.2140    7.5450   42.5980 C.3    64  ASN64       0.1155
     49  CG         6.5510    8.7300   43.4740 C.2    64  ASN64       0.2627
     50  OD1        7.5180    8.7080   44.2530 O.2    64  ASN64      -0.2716
     51  ND2        5.7430    9.7910   43.3720 N.am   64  ASN64      -0.0877
     52  N          9.9640    9.9380   53.5700 N.3   115  THR115     -0.1218
     53  CA         9.8440   11.3690   53.4430 C.3   115  THR115      0.1862
     54  C          8.4540   11.8430   53.8920 C.2   115  THR115      0.2287
     55  O          7.4920   11.0800   53.8990 O.2   115  THR115     -0.2866
     56  CB        10.1820   11.8060   51.9620 C.3   115  THR115      0.1770
     57  OG1       10.4300   13.2150   51.9180 O.3   115  THR115     -0.2211
     58  CG2        9.0620   11.4120   50.9440 C.3   115  THR115      0.0375
     59  N         -0.1470   20.6030   44.0340 N.3   163  GLN163     -0.1245
     60  CA         0.0090   19.3600   44.7830 C.3   163  GLN163      0.1566
     61  C          0.4530   19.5830   46.2620 C.2   163  GLN163      0.2260
     62  O         -0.0020   18.8490   47.1810 O.2   163  GLN163     -0.2867
     63  CB         0.9940   18.4590   44.0380 C.3   163  GLN163      0.0367
     64  CG         1.1400   17.0570   44.6190 C.3   163  GLN163      0.0905
     65  CD         2.1700   16.2570   43.8820 C.2   163  GLN163      0.2608
     66  OE1        3.1440   16.8040   43.3790 O.2   163  GLN163     -0.2717
     67  NE2        1.9700   14.9640   43.8140 N.am  163  GLN163     -0.0878
     68  N          9.0230   17.6760   50.3830 N.3   243  TRP243     -0.1241
     69  CA         9.6930   16.4420   50.7170 C.3   243  TRP243      0.1605
     70  C         11.1130   16.7100   51.1920 C.2   243  TRP243      0.2264
     71  O         11.9230   17.2820   50.4550 O.2   243  TRP243     -0.2867
     72  CB         9.7760   15.5590   49.4560 C.3   243  TRP243      0.0550
     73  CG         8.4570   15.3090   48.7890 C.ar  243  TRP243      0.0003
     74  CD1        8.0860   15.6760   47.5130 C.ar  243  TRP243      0.0946
     75  CD2        7.3350   14.6610   49.3710 C.ar  243  TRP243      0.0152
     76  NE1        6.7760   15.2730   47.2760 N.ar  243  TRP243     -0.2442
     77  CE2        6.3020   14.6480   48.4040 C.ar  243  TRP243      0.0810
     78  CE3        7.0940   14.0870   50.6300 C.ar  243  TRP243      0.0012
     79  CZ2        5.0230   14.1050   48.6760 C.ar  243  TRP243      0.0191
     80  CZ3        5.8420   13.5260   50.8910 C.ar  243  TRP243      0.0001
     81  CH2        4.8190   13.5510   49.9190 C.ar  243  TRP243      0.0015
     82  N         13.3110   14.6740   51.3700 N.3   245  SER245     -0.1202
     83  CA        14.1500   13.7800   50.6050 C.3   245  SER245      0.2020
     84  C         14.6450   14.4370   49.2930 C.2   245  SER245      0.2619
     85  O         15.6090   13.9500   48.6560 O.2   245  SER245     -0.2717
     86  CB        13.3700   12.5190   50.2830 C.3   245  SER245      0.2103
     87  OG        12.4060   12.7770   49.2910 O.3   245  SER245     -0.2182
     88  N         14.0100   15.5420   48.8960 N.am  246  THR246     -0.1952
     89  CA        14.4290   16.2550   47.6950 C.3   246  THR246      0.1897
     90  C         14.6240   17.7460   47.9410 C.2   246  THR246      0.2313
     91  O         14.5030   18.5630   47.0200 O.2   246  THR246     -0.2863
     92  CB        13.5200   15.8900   46.4320 C.3   246  THR246      0.1794
     93  OG1       14.0840   16.4210   45.2300 O.3   246  THR246     -0.2208
     94  CG2       12.0670   16.3060   46.5790 C.3   246  THR246      0.0378
     95  N         17.1880   19.9460   45.7710 N.3   249  LYS249     -0.1245
     96  CA        16.7960   20.3800   44.4340 C.3   249  LYS249      0.1561
     97  C         16.3570   21.8640   44.4880 C.2   249  LYS249      0.2260
     98  O         16.3430   22.5660   43.4640 O.2   249  LYS249     -0.2867
     99  CB        15.6640   19.4840   43.9130 C.3   249  LYS249      0.0271
    100  CG        15.2200   19.7380   42.4850 C.3   249  LYS249      0.0035
    101  CD        14.3620   18.6140   41.8840 C.3   249  LYS249      0.0206
    102  CE        12.9190   18.6580   42.3550 C.3   249  LYS249      0.1093
    103  NZ        11.9830   17.6920   41.6650 N.3   249  LYS249     -0.1314
    104  N          5.4650    8.7640   53.5980 N.3   279  LYS279     -0.1245
    105  CA         5.4150    7.6670   52.6440 C.3   279  LYS279      0.1561
    106  C          6.8660    7.2980   52.3200 C.2   279  LYS279      0.2260
    107  O          7.7990    8.0280   52.7530 O.2   279  LYS279     -0.2867
    108  CB         4.6820    8.1290   51.3810 C.3   279  LYS279      0.0271
    109  CG         5.3550    9.3090   50.7190 C.3   279  LYS279      0.0035
    110  CD         4.8210    9.6150   49.3220 C.3   279  LYS279      0.0206
    111  CE         5.7410   10.6020   48.6000 C.3   279  LYS279      0.1093
    112  NZ         5.1000   11.1710   47.3620 N.3   279  LYS279     -0.1314
    113  N          9.7500    7.4400   49.7610 N.3   281  ALA281     -0.1231
    114  CA         9.9930    8.6080   48.9280 C.3   281  ALA281      0.1694
    115  C          9.9960    8.1460   47.4720 C.2   281  ALA281      0.2591
    116  O          9.4970    8.8320   46.5630 O.2   281  ALA281     -0.2718
    117  CB        11.3000    9.2330   49.3070 C.3   281  ALA281      0.0304
    118  N         10.5590    6.9470   47.2970 N.am  282  GLN282     -0.1979
    119  CA        10.7920    6.2970   46.0030 C.3   282  GLN282      0.1601
    120  C         11.3300    4.8840   46.1950 C.2   282  GLN282      0.2287
    121  O         11.8270    4.4820   47.2850 O.2   282  GLN282     -0.2864
    122  CB        11.7160    7.1280   45.0910 C.3   282  GLN282      0.0394
    123  CG        12.8920    7.8080   45.7550 C.3   282  GLN282      0.0908
    124  CD        13.6490    8.6120   44.7990 C.2   282  GLN282      0.2608
    125  OE1       13.3780    9.7960   44.6020 O.2   282  GLN282     -0.2717
    126  NE2       14.5910    8.0010   44.1490 N.am  282  GLN282     -0.0878
    127  N         18.7310   11.1950   47.2420 N.3   317  ARG317     -0.1245
    128  CA        17.4130   10.5760   47.2400 C.3   317  ARG317      0.1563
    129  C         16.8300   10.5610   48.6180 C.2   317  ARG317      0.2260
    130  O         15.7690   10.0060   48.8220 O.2   317  ARG317     -0.2867
    131  CB        17.4860    9.1510   46.6560 C.3   317  ARG317      0.0307
    132  CG        17.6150    9.1970   45.1440 C.3   317  ARG317      0.0489
    133  CD        17.7420    7.7910   44.5780 C.3   317  ARG317      0.2205
    134  NE        17.6860    7.7340   43.1200 N.pl3 317  ARG317     -0.0865
    135  CZ        18.7110    7.8920   42.2860 C.cat 317  ARG317      0.5346
    136  NH1       19.9480    8.1380   42.7310 N.pl3 317  ARG317      0.1354
    137  NH2       18.4920    7.7850   40.9620 N.pl3 317  ARG317      0.1354
    138  N         -2.8810   10.6330   46.3080 N.3   362  ASP362     -0.1239
    139  CA        -1.8850   11.0940   45.3020 C.3   362  ASP362      0.1674
    140  C         -2.0980   10.5110   43.8900 C.2   362  ASP362      0.2266
    141  O         -1.1440   10.3100   43.1320 O.2   362  ASP362     -0.2867
    142  CB        -0.4640   10.7960   45.7900 C.3   362  ASP362      0.1410
    143  CG         0.5620   11.7340   45.2270 C.2   362  ASP362      0.3668
    144  OD1        0.2400   12.8980   45.0220 O.co2 362  ASP362     -0.2456
    145  OD2        1.7500   11.3400   45.0480 O.co2 362  ASP362     -0.2456
@<TRIPOS>BOND
     1    33    32    2
     2    32    31    1
     3    30    31    1
     4    31    34    1
     5     2     1    1
     6     2     5    1
     7     2     3    1
     8     5     6    1
     9    18    17    2
    10    15     3   am
    11    15    16    1
    12     3     4    2
    13    34    35    1
    14    17    16    1
    15     6     8   ar
    16     6     7   ar
    17    35    36   ar
    18    35    37   ar
    19    36    38   ar
    20    11     8   ar
    21    11    13   ar
    22    38    39   ar
    23    37    40   ar
    24    37    39   ar
    25     8    10   ar
    26    40    42   ar
    27    39    41   ar
    28     7     9   ar
    29    21    22    2
    30    21    20    1
    31    42    43   ar
    32    41    43   ar
    33    13    14   ar
    34   137   135    1
    35    10     9   ar
    36    10    12   ar
    37    19    20    1
    38    20    23    1
    39    24    23    1
    40    24    25    1
    41    14    12   ar
    42   103   102    1
    43    25    26    1
    44   101   102    1
    45   101   100    1
    46    44    45    1
    47   135   136    1
    48   135   134    2
    49   100    99    1
    50    28    27    1
    51    48    45    1
    52    48    49    1
    53    26    27    2
    54    45    46    1
    55   134   133    1
    56    47    46    2
    57   141   140    2
    58    51    49   am
    59    66    65    2
    60    27    29    1
    61    98    97    2
    62    49    50    2
    63    67    65   am
    64    65    64    1
    65   140   139    1
    66    99    96    1
    67    59    60    1
    68    63    64    1
    69    63    60    1
    70   126   124   am
    71    96    97    1
    72    96    95    1
    73   133   132    1
    74   125   124    2
    75    60    61    1
    76   124   123    1
    77   144   143   ar
    78   145   143   ar
    79   122   123    1
    80   122   119    1
    81   132   131    1
    82   143   142    1
    83    93    92    1
    84   139   142    1
    85   139   138    1
    86   119   120    1
    87   119   118    1
    88   120   121    2
    89    61    62    2
    90    92    94    1
    91    92    89    1
    92   116   115    2
    93   131   128    1
    94    91    90    2
    95   128   127    1
    96   128   129    1
    97    76    74   ar
    98    76    77   ar
    99   118   115   am
   100   112   111    1
   101   115   114    1
   102    74    73   ar
   103    89    90    1
   104    89    88    1
   105    77    79   ar
   106    77    75   ar
   107   111   110    1
   108   129   130    2
   109    85    84    2
   110    79    81   ar
   111    73    75   ar
   112    73    72    1
   113    88    84   am
   114   114   117    1
   115   114   113    1
   116    87    86    1
   117    84    83    1
   118   110   109    1
   119    75    78   ar
   120    72    69    1
   121    81    80   ar
   122    86    83    1
   123    68    69    1
   124    71    70    2
   125    83    82    1
   126    78    80   ar
   127    69    70    1
   128   109   108    1
   129    58    56    1
   130   108   105    1
   131    57    56    1
   132    56    53    1
   133   106   105    1
   134   106   107    2
   135   105   104    1
   136    53    52    1
   137    53    54    1
   138    54    55    2
