@<TRIPOS>MOLECULE
tmp/2uvhA00.pdb
 140 136 0 0 0
SMALL
GASTEIGER

@<TRIPOS>ATOM
      1  N         13.9900    9.6620   37.6020 N.3     9  TRP9       -0.1241
      2  CA        13.7980   11.1180   37.5220 C.3     9  TRP9        0.1605
      3  C         14.6040   11.8290   38.6240 C.2     9  TRP9        0.2264
      4  O         15.0640   11.1960   39.5670 O.2     9  TRP9       -0.2867
      5  CB        12.3040   11.5000   37.6110 C.3     9  TRP9        0.0550
      6  CG        11.8190   11.4650   39.0200 C.ar    9  TRP9        0.0003
      7  CD1       11.8580   12.4970   39.9350 C.ar    9  TRP9        0.0946
      8  CD2       11.2220   10.3420   39.6980 C.ar    9  TRP9        0.0152
      9  NE1       11.3730   12.0620   41.1520 N.ar    9  TRP9       -0.2442
     10  CE2       10.9560   10.7490   41.0280 C.ar    9  TRP9        0.0810
     11  CE3       10.9130    9.0130   39.3170 C.ar    9  TRP9        0.0012
     12  CZ2       10.3820    9.8800   41.9720 C.ar    9  TRP9        0.0191
     13  CZ3       10.3340    8.1600   40.2710 C.ar    9  TRP9        0.0001
     14  CH2       10.0810    8.5870   41.5570 C.ar    9  TRP9        0.0015
     15  N         11.1590   15.2690   37.0960 N.3    41  TRP41      -0.1241
     16  CA         9.8460   14.7400   37.4570 C.3    41  TRP41       0.1605
     17  C          8.7780   14.9510   36.3790 C.2    41  TRP41       0.2264
     18  O          8.0310   14.0250   36.0530 O.2    41  TRP41      -0.2867
     19  CB         9.3350   15.4090   38.7420 C.3    41  TRP41       0.0550
     20  CG         7.9430   15.0040   39.1070 C.ar   41  TRP41       0.0003
     21  CD1        6.8210   15.7960   39.1130 C.ar   41  TRP41       0.0946
     22  CD2        7.5190   13.6960   39.5270 C.ar   41  TRP41       0.0152
     23  NE1        5.7030   15.0530   39.4970 N.ar   41  TRP41      -0.2442
     24  CE2        6.1170   13.7640   39.7700 C.ar   41  TRP41       0.0810
     25  CE3        8.1940   12.4740   39.7500 C.ar   41  TRP41       0.0012
     26  CZ2        5.3880   12.6570   40.2150 C.ar   41  TRP41       0.0191
     27  CZ3        7.4620   11.3700   40.1830 C.ar   41  TRP41       0.0001
     28  CH2        6.0730   11.4720   40.4210 C.ar   41  TRP41       0.0015
     29  N          7.4500    5.4860   42.0690 N.3    64  ASN64      -0.1240
     30  CA         6.8150    6.2220   43.1170 C.3    64  ASN64       0.1653
     31  C          5.7870    5.3290   43.7650 C.2    64  ASN64       0.2266
     32  O          5.1940    4.4640   43.1280 O.2    64  ASN64      -0.2867
     33  CB         6.2140    7.5450   42.5980 C.3    64  ASN64       0.1155
     34  CG         6.5510    8.7300   43.4740 C.2    64  ASN64       0.2627
     35  OD1        7.5180    8.7080   44.2530 O.2    64  ASN64      -0.2716
     36  ND2        5.7430    9.7910   43.3720 N.am   64  ASN64      -0.0877
     37  N          6.1980   15.7880   53.5110 N.3   117  ARG117     -0.1245
     38  CA         6.3140   17.2420   53.2050 C.3   117  ARG117      0.1563
     39  C          6.3620   18.0300   54.5020 C.2   117  ARG117      0.2260
     40  O          5.5040   17.8620   55.3320 O.2   117  ARG117     -0.2867
     41  CB         5.1420   17.7680   52.3550 C.3   117  ARG117      0.0307
     42  CG         5.0240   17.2120   50.9600 C.3   117  ARG117      0.0489
     43  CD         3.9830   17.9700   50.1520 C.3   117  ARG117      0.2205
     44  NE         3.8560   17.4570   48.7940 N.pl3 117  ARG117     -0.0865
     45  CZ         4.5980   17.8440   47.7640 C.cat 117  ARG117      0.5346
     46  NH1        5.5280   18.7890   47.9110 N.pl3 117  ARG117      0.1354
     47  NH2        4.3990   17.3020   46.5750 N.pl3 117  ARG117      0.1354
     48  N          2.9090   24.8650   44.9790 N.3   161  GLU161     -0.1245
     49  CA         2.3460   24.3450   43.7320 C.3   161  GLU161      0.1567
     50  C          1.1150   23.6250   44.1620 C.2   161  GLU161      0.2260
     51  O          0.9530   23.3570   45.3780 O.2   161  GLU161     -0.2867
     52  CB         3.3020   23.3900   43.0390 C.3   161  GLU161      0.0388
     53  CG         4.5770   24.0760   42.6900 C.3   161  GLU161      0.1160
     54  CD         5.5940   23.1130   42.0760 C.2   161  GLU161      0.3649
     55  OE1        5.5040   22.8290   40.8680 O.co2 161  GLU161     -0.2457
     56  OE2        6.4660   22.6440   42.8210 O.co2 161  GLU161     -0.2457
     57  N         -0.1470   20.6030   44.0340 N.3   163  GLN163     -0.1231
     58  CA         0.0090   19.3600   44.7830 C.3   163  GLN163      0.1698
     59  C          0.4530   19.5830   46.2620 C.2   163  GLN163      0.2592
     60  O         -0.0020   18.8490   47.1810 O.2   163  GLN163     -0.2718
     61  CB         0.9940   18.4590   44.0380 C.3   163  GLN163      0.0381
     62  CG         1.1400   17.0570   44.6190 C.3   163  GLN163      0.0905
     63  CD         2.1700   16.2570   43.8820 C.2   163  GLN163      0.2608
     64  OE1        3.1440   16.8040   43.3790 O.2   163  GLN163     -0.2717
     65  NE2        1.9700   14.9640   43.8140 N.am  163  GLN163     -0.0878
     66  N          1.3310   20.5700   46.4760 N.am  164  ASP164     -0.1974
     67  CA         1.7910   20.9680   47.8190 C.3   164  ASP164      0.1709
     68  C          0.6430   21.4800   48.6570 C.2   164  ASP164      0.2293
     69  O          0.4740   21.0680   49.7960 O.2   164  ASP164     -0.2864
     70  CB         2.7980   22.0990   47.7850 C.3   164  ASP164      0.1436
     71  CG         3.9000   21.8760   46.8000 C.2   164  ASP164      0.3671
     72  OD1        4.5720   22.8840   46.5240 O.co2 164  ASP164     -0.2456
     73  OD2        4.1040   20.7270   46.3160 O.co2 164  ASP164     -0.2456
     74  N          7.6430   20.8550   51.3610 N.3   242  MET242     -0.1230
     75  CA         8.4350   20.0000   50.4950 C.3   242  MET242      0.1702
     76  C          8.9870   18.7450   51.1650 C.2   242  MET242      0.2592
     77  O          9.3060   18.7480   52.3540 O.2   242  MET242     -0.2718
     78  CB         9.6010   20.8260   49.8790 C.3   242  MET242      0.0401
     79  CG        10.3730   20.0980   48.7850 C.3   242  MET242      0.0596
     80  SD         9.3850   19.4850   47.4280 S.3   242  MET242     -0.1393
     81  CE         8.5570   21.0170   46.9350 C.3   242  MET242      0.0692
     82  N          9.0230   17.6760   50.3830 N.am  243  TRP243     -0.1976
     83  CA         9.6930   16.4420   50.7170 C.3   243  TRP243      0.1640
     84  C         11.1130   16.7100   51.1920 C.2   243  TRP243      0.2290
     85  O         11.9230   17.2820   50.4550 O.2   243  TRP243     -0.2864
     86  CB         9.7760   15.5590   49.4560 C.3   243  TRP243      0.0576
     87  CG         8.4570   15.3090   48.7890 C.ar  243  TRP243      0.0006
     88  CD1        8.0860   15.6760   47.5130 C.ar  243  TRP243      0.0946
     89  CD2        7.3350   14.6610   49.3710 C.ar  243  TRP243      0.0152
     90  NE1        6.7760   15.2730   47.2760 N.ar  243  TRP243     -0.2442
     91  CE2        6.3020   14.6480   48.4040 C.ar  243  TRP243      0.0810
     92  CE3        7.0940   14.0870   50.6300 C.ar  243  TRP243      0.0012
     93  CZ2        5.0230   14.1050   48.6760 C.ar  243  TRP243      0.0191
     94  CZ3        5.8420   13.5260   50.8910 C.ar  243  TRP243      0.0001
     95  CH2        4.8190   13.5510   49.9190 C.ar  243  TRP243      0.0015
     96  N         14.0100   15.5420   48.8960 N.3   246  THR246     -0.1218
     97  CA        14.4290   16.2550   47.6950 C.3   246  THR246      0.1862
     98  C         14.6240   17.7460   47.9410 C.2   246  THR246      0.2287
     99  O         14.5030   18.5630   47.0200 O.2   246  THR246     -0.2866
    100  CB        13.5200   15.8900   46.4320 C.3   246  THR246      0.1770
    101  OG1       14.0840   16.4210   45.2300 O.3   246  THR246     -0.2211
    102  CG2       12.0670   16.3060   46.5790 C.3   246  THR246      0.0375
    103  N         17.1880   19.9460   45.7710 N.3   249  LYS249     -0.1231
    104  CA        16.7960   20.3800   44.4340 C.3   249  LYS249      0.1693
    105  C         16.3570   21.8640   44.4880 C.2   249  LYS249      0.2592
    106  O         16.3430   22.5660   43.4640 O.2   249  LYS249     -0.2718
    107  CB        15.6640   19.4840   43.9130 C.3   249  LYS249      0.0285
    108  CG        15.2200   19.7380   42.4850 C.3   249  LYS249      0.0035
    109  CD        14.3620   18.6140   41.8840 C.3   249  LYS249      0.0206
    110  CE        12.9190   18.6580   42.3550 C.3   249  LYS249      0.1093
    111  NZ        11.9830   17.6920   41.6650 N.3   249  LYS249     -0.1314
    112  N         16.0140   22.3300   45.7020 N.am  250  TYR250     -0.1976
    113  CA        15.3560   23.6180   45.9370 C.3   250  TYR250      0.1639
    114  C         16.3490   24.6570   46.4910 C.2   250  TYR250      0.2290
    115  O         16.5620   25.7510   45.8840 O.2   250  TYR250     -0.2864
    116  CB        14.1230   23.4290   46.8470 C.3   250  TYR250      0.0560
    117  CG        13.0430   22.6630   46.1270 C.ar  250  TYR250     -0.0198
    118  CD1       12.0690   23.3350   45.4010 C.ar  250  TYR250     -0.0009
    119  CD2       13.0490   21.2640   46.0950 C.ar  250  TYR250     -0.0009
    120  CE1       11.1250   22.6530   44.6960 C.ar  250  TYR250      0.0417
    121  CE2       12.0800   20.5650   45.3590 C.ar  250  TYR250      0.0417
    122  CZ        11.1250   21.2800   44.6590 C.ar  250  TYR250      0.1957
    123  OH        10.1370   20.6220   43.9330 O.3   250  TYR250     -0.2866
    124  N          5.4650    8.7640   53.5980 N.3   279  LYS279     -0.1245
    125  CA         5.4150    7.6670   52.6440 C.3   279  LYS279      0.1561
    126  C          6.8660    7.2980   52.3200 C.2   279  LYS279      0.2260
    127  O          7.7990    8.0280   52.7530 O.2   279  LYS279     -0.2867
    128  CB         4.6820    8.1290   51.3810 C.3   279  LYS279      0.0271
    129  CG         5.3550    9.3090   50.7190 C.3   279  LYS279      0.0035
    130  CD         4.8210    9.6150   49.3220 C.3   279  LYS279      0.0206
    131  CE         5.7410   10.6020   48.6000 C.3   279  LYS279      0.1093
    132  NZ         5.1000   11.1710   47.3620 N.3   279  LYS279     -0.1314
    133  N         -2.8810   10.6330   46.3080 N.3   362  ASP362     -0.1239
    134  CA        -1.8850   11.0940   45.3020 C.3   362  ASP362      0.1674
    135  C         -2.0980   10.5110   43.8900 C.2   362  ASP362      0.2266
    136  O         -1.1440   10.3100   43.1320 O.2   362  ASP362     -0.2867
    137  CB        -0.4640   10.7960   45.7900 C.3   362  ASP362      0.1410
    138  CG         0.5620   11.7340   45.2270 C.2   362  ASP362      0.3668
    139  OD1        0.2400   12.8980   45.0220 O.co2 362  ASP362     -0.2456
    140  OD2        1.7500   11.3400   45.0480 O.co2 362  ASP362     -0.2456
@<TRIPOS>BOND
     1    18    17    2
     2    17    16    1
     3    15    16    1
     4    16    19    1
     5     2     1    1
     6     2     5    1
     7     2     3    1
     8     5     6    1
     9     3     4    2
    10    19    20    1
    11     6     8   ar
    12     6     7   ar
    13    20    21   ar
    14    20    22   ar
    15    21    23   ar
    16    11     8   ar
    17    11    13   ar
    18    23    24   ar
    19    22    25   ar
    20    22    24   ar
    21     8    10   ar
    22    25    27   ar
    23    24    26   ar
    24     7     9   ar
    25    27    28   ar
    26    26    28   ar
    27    13    14   ar
    28    55    54   ar
    29    10     9   ar
    30    10    12   ar
    31    14    12   ar
    32   111   110    1
    33   109   110    1
    34   109   108    1
    35    29    30    1
    36    54    53    1
    37    54    56   ar
    38   108   107    1
    39    33    30    1
    40    33    34    1
    41    53    52    1
    42    52    49    1
    43    30    31    1
    44    32    31    2
    45   136   135    2
    46    36    34   am
    47    64    63    2
    48   106   105    2
    49    34    35    2
    50    49    50    1
    51    49    48    1
    52    65    63   am
    53    63    62    1
    54   135   134    1
    55   107   104    1
    56   123   122    1
    57    57    58    1
    58    61    62    1
    59    61    58    1
    60    50    51    2
    61   104   105    1
    62   104   103    1
    63   105   112   am
    64   122   120   ar
    65   122   121   ar
    66   120   118   ar
    67    58    59    1
    68   139   138   ar
    69   140   138   ar
    70   138   137    1
    71   101   100    1
    72   134   137    1
    73   134   133    1
    74   121   119   ar
    75   118   117   ar
    76   112   113    1
    77   115   114    2
    78   113   114    1
    79   113   116    1
    80   119   117   ar
    81   117   116    1
    82    59    66   am
    83    59    60    2
    84    73    71   ar
    85   100   102    1
    86   100    97    1
    87    66    67    1
    88    72    71   ar
    89    47    45    1
    90    71    70    1
    91    81    80    1
    92    99    98    2
    93    90    88   ar
    94    90    91   ar
    95   132   131    1
    96    80    79    1
    97    88    87   ar
    98    97    98    1
    99    97    96    1
   100    45    46    1
   101    45    44    2
   102    70    67    1
   103    67    68    1
   104    91    93   ar
   105    91    89   ar
   106   131   130    1
   107    68    69    2
   108    93    95   ar
   109    79    78    1
   110    87    89   ar
   111    87    86    1
   112    44    43    1
   113   130   129    1
   114    89    92   ar
   115    86    83    1
   116    78    75    1
   117    95    94   ar
   118    43    42    1
   119    82    83    1
   120    82    76   am
   121    85    84    2
   122    75    76    1
   123    75    74    1
   124    92    94   ar
   125    83    84    1
   126   129   128    1
   127    42    41    1
   128    76    77    2
   129   128   125    1
   130   126   125    1
   131   126   127    2
   132    41    38    1
   133   125   124    1
   134    38    37    1
   135    38    39    1
   136    39    40    2
