@<TRIPOS>MOLECULE
tmp/2uviA00.pdb
 182 175 0 0 0
SMALL
GASTEIGER

@<TRIPOS>ATOM
      1  N         13.9570    9.8140   37.7220 N.3     9  TRP9       -0.1227
      2  CA        13.7430   11.2550   37.6720 C.3     9  TRP9        0.1737
      3  C         14.4550   11.9350   38.8430 C.2     9  TRP9        0.2596
      4  O         14.7960   11.3030   39.8280 O.2     9  TRP9       -0.2718
      5  CB        12.2660   11.5710   37.7580 C.3     9  TRP9        0.0564
      6  CG        11.7660   11.4570   39.1710 C.ar    9  TRP9        0.0003
      7  CD1       11.7740   12.4380   40.1130 C.ar    9  TRP9        0.0946
      8  CD2       11.1970   10.2920   39.8000 C.ar    9  TRP9        0.0152
      9  NE1       11.2140   11.9720   41.2880 N.ar    9  TRP9       -0.2442
     10  CE2       10.8670   10.6560   41.1310 C.ar    9  TRP9        0.0810
     11  CE3       10.9160    8.9810   39.3600 C.ar    9  TRP9        0.0012
     12  CZ2       10.2450    9.7550   42.0350 C.ar    9  TRP9        0.0191
     13  CZ3       10.3390    8.0880   40.2280 C.ar    9  TRP9        0.0001
     14  CH2       10.0160    8.4750   41.5730 C.ar    9  TRP9        0.0015
     15  N         14.6900   13.2190   38.7280 N.am   10  GLY10      -0.1957
     16  CA        15.3490   13.9660   39.7570 C.3    10  GLY10       0.1869
     17  C         15.9120   15.2930   39.2750 C.2    10  GLY10       0.2309
     18  O         15.7030   15.6770   38.1130 O.2    10  GLY10      -0.2863
     19  N         21.1430   14.8380   41.2920 N.3    14  ARG14      -0.1245
     20  CA        20.7900   13.4060   41.4060 C.3    14  ARG14       0.1563
     21  C         21.1300   12.6520   40.1670 C.2    14  ARG14       0.2260
     22  O         21.5350   11.5110   40.2640 O.2    14  ARG14      -0.2867
     23  CB        19.3080   13.1980   41.8250 C.3    14  ARG14       0.0307
     24  CG        18.8110   11.7400   41.7560 C.3    14  ARG14       0.0489
     25  CD        17.3070   11.6150   41.9350 C.3    14  ARG14       0.2205
     26  NE        16.9190   12.1750   43.2200 N.pl3  14  ARG14      -0.0865
     27  CZ        15.6970   12.1530   43.7170 C.cat  14  ARG14       0.5346
     28  NH1       14.7110   11.6510   43.0180 N.pl3  14  ARG14       0.1354
     29  NH2       15.4440   12.6950   44.8860 N.pl3  14  ARG14       0.1354
     30  N         11.0460   15.4100   37.1980 N.3    41  TRP41      -0.1241
     31  CA         9.7510   14.8470   37.5820 C.3    41  TRP41       0.1605
     32  C          8.6850   15.0510   36.4830 C.2    41  TRP41       0.2264
     33  O          7.7980   14.2140   36.2970 O.2    41  TRP41      -0.2867
     34  CB         9.2510   15.4820   38.9180 C.3    41  TRP41       0.0550
     35  CG         7.8570   15.0470   39.2670 C.ar   41  TRP41       0.0003
     36  CD1        6.7140   15.8220   39.2900 C.ar   41  TRP41       0.0946
     37  CD2        7.4470   13.7020   39.6210 C.ar   41  TRP41       0.0152
     38  NE1        5.6090   15.0270   39.6490 N.ar   41  TRP41      -0.2442
     39  CE2        6.0450   13.7330   39.8650 C.ar   41  TRP41       0.0810
     40  CE3        8.1430   12.4790   39.8080 C.ar   41  TRP41       0.0012
     41  CZ2        5.3390   12.5890   40.2420 C.ar   41  TRP41       0.0191
     42  CZ3        7.4300   11.3430   40.1690 C.ar   41  TRP41       0.0001
     43  CH2        6.0460   11.4050   40.3860 C.ar   41  TRP41       0.0015
     44  N          7.4430    5.3610   42.0710 N.3    64  ASN64      -0.1240
     45  CA         6.8040    6.1320   43.1090 C.3    64  ASN64       0.1653
     46  C          5.7870    5.2160   43.7810 C.2    64  ASN64       0.2266
     47  O          5.2450    4.3190   43.1710 O.2    64  ASN64      -0.2867
     48  CB         6.1600    7.4250   42.5750 C.3    64  ASN64       0.1155
     49  CG         6.5300    8.6430   43.4020 C.2    64  ASN64       0.2627
     50  OD1        7.6040    8.6930   44.0480 O.2    64  ASN64      -0.2716
     51  ND2        5.6350    9.6350   43.4180 N.am   64  ASN64      -0.0877
     52  N          9.9170    9.8670   53.5510 N.3   115  THR115     -0.1218
     53  CA         9.8920   11.3180   53.4340 C.3   115  THR115      0.1862
     54  C          8.5400   11.8400   53.8980 C.2   115  THR115      0.2287
     55  O          7.6210   11.1330   53.8830 O.2   115  THR115     -0.2866
     56  CB        10.1980   11.7510   51.9430 C.3   115  THR115      0.1770
     57  OG1       10.5420   13.1370   51.9080 O.3   115  THR115     -0.2211
     58  CG2        8.9940   11.4520   50.9630 C.3   115  THR115      0.0375
     59  N          6.3610   15.8520   53.4480 N.3   117  ARG117     -0.1245
     60  CA         6.4830   17.3000   53.1110 C.3   117  ARG117      0.1563
     61  C          6.6610   18.1350   54.3930 C.2   117  ARG117      0.2260
     62  O          5.9230   17.9700   55.3220 O.2   117  ARG117     -0.2867
     63  CB         5.2590   17.8020   52.3420 C.3   117  ARG117      0.0307
     64  CG         5.1080   17.2870   50.9250 C.3   117  ARG117      0.0489
     65  CD         4.1340   18.1540   50.1260 C.3   117  ARG117      0.2205
     66  NE         3.9140   17.6260   48.7850 N.pl3 117  ARG117     -0.0865
     67  CZ         4.6790   17.9190   47.7270 C.cat 117  ARG117      0.5346
     68  NH1        5.7060   18.7710   47.8390 N.pl3 117  ARG117      0.1354
     69  NH2        4.4270   17.3550   46.5600 N.pl3 117  ARG117      0.1354
     70  N          3.2370   24.8880   44.7050 N.3   161  GLU161     -0.1245
     71  CA         2.6550   24.3130   43.4890 C.3   161  GLU161      0.1567
     72  C          1.4080   23.6060   43.9070 C.2   161  GLU161      0.2260
     73  O          1.3020   23.2450   45.0550 O.2   161  GLU161     -0.2867
     74  CB         3.6060   23.3590   42.8320 C.3   161  GLU161      0.0388
     75  CG         4.8820   24.0050   42.3950 C.3   161  GLU161      0.1160
     76  CD         5.7710   23.0130   41.7180 C.2   161  GLU161      0.3649
     77  OE1        5.4760   22.7150   40.5660 O.co2 161  GLU161     -0.2457
     78  OE2        6.7470   22.5130   42.3470 O.co2 161  GLU161     -0.2457
     79  N          0.1510   20.6930   43.8280 N.3   163  GLN163     -0.1231
     80  CA         0.2740   19.4430   44.5860 C.3   163  GLN163      0.1698
     81  C          0.7070   19.6640   46.0400 C.2   163  GLN163      0.2592
     82  O          0.2840   18.9040   46.9390 O.2   163  GLN163     -0.2718
     83  CB         1.2360   18.4990   43.8840 C.3   163  GLN163      0.0381
     84  CG         1.3710   17.1740   44.5310 C.3   163  GLN163      0.0905
     85  CD         2.2730   16.2680   43.7540 C.2   163  GLN163      0.2608
     86  OE1        3.2790   16.7010   43.1340 O.2   163  GLN163     -0.2717
     87  NE2        1.9360   14.9920   43.7770 N.am  163  GLN163     -0.0878
     88  N          1.5570   20.6740   46.2430 N.am  164  ASP164     -0.1974
     89  CA         2.1090   21.0990   47.5650 C.3   164  ASP164      0.1709
     90  C          0.9820   21.5720   48.3790 C.2   164  ASP164      0.2293
     91  O          0.8210   21.1260   49.5100 O.2   164  ASP164     -0.2864
     92  CB         3.0890   22.2640   47.4500 C.3   164  ASP164      0.1436
     93  CG         4.2120   22.0070   46.4650 C.2   164  ASP164      0.3671
     94  OD1        4.9800   22.9660   46.2280 O.co2 164  ASP164     -0.2456
     95  OD2        4.3430   20.8610   45.9390 O.co2 164  ASP164     -0.2456
     96  N          7.8840   20.8700   51.1540 N.3   242  MET242     -0.1230
     97  CA         8.6460   19.9680   50.3050 C.3   242  MET242      0.1702
     98  C          9.1770   18.7220   50.9720 C.2   242  MET242      0.2592
     99  O          9.5640   18.7480   52.1220 O.2   242  MET242     -0.2718
    100  CB         9.7980   20.7410   49.6770 C.3   242  MET242      0.0401
    101  CG        10.5230   19.9790   48.5380 C.3   242  MET242      0.0596
    102  SD         9.5110   19.4590   47.1480 S.3   242  MET242     -0.1393
    103  CE         8.6640   21.0130   46.7500 C.3   242  MET242      0.0692
    104  N          9.1600   17.6160   50.2330 N.am  243  TRP243     -0.1976
    105  CA         9.8750   16.3590   50.5880 C.3   243  TRP243      0.1640
    106  C         11.2970   16.6100   50.9850 C.2   243  TRP243      0.2290
    107  O         12.0300   17.1960   50.1990 O.2   243  TRP243     -0.2864
    108  CB         9.9180   15.4180   49.3510 C.3   243  TRP243      0.0576
    109  CG         8.6160   15.2460   48.7180 C.ar  243  TRP243      0.0006
    110  CD1        8.2610   15.6300   47.4700 C.ar  243  TRP243      0.0946
    111  CD2        7.4410   14.6620   49.3260 C.ar  243  TRP243      0.0152
    112  NE1        6.9310   15.3060   47.2490 N.ar  243  TRP243     -0.2442
    113  CE2        6.4140   14.7110   48.3780 C.ar  243  TRP243      0.0810
    114  CE3        7.1670   14.1260   50.5870 C.ar  243  TRP243      0.0012
    115  CZ2        5.0940   14.2570   48.6630 C.ar  243  TRP243      0.0191
    116  CZ3        5.8740   13.6110   50.8670 C.ar  243  TRP243      0.0001
    117  CH2        4.8480   13.7050   49.9140 C.ar  243  TRP243      0.0015
    118  N         13.4580   14.3930   50.8180 N.3   245  SER245     -0.1202
    119  CA        14.2180   13.4760   49.9480 C.3   245  SER245      0.2020
    120  C         14.8000   14.0910   48.6840 C.2   245  SER245      0.2619
    121  O         15.5470   13.4200   47.9810 O.2   245  SER245     -0.2717
    122  CB        13.3000   12.3400   49.5270 C.3   245  SER245      0.2103
    123  OG        12.3210   12.8250   48.6210 O.3   245  SER245     -0.2182
    124  N         14.4260   15.3430   48.3860 N.am  246  THR246     -0.1952
    125  CA        14.7730   16.0440   47.1690 C.3   246  THR246      0.1897
    126  C         14.8430   17.5230   47.4160 C.2   246  THR246      0.2313
    127  O         14.7860   18.3430   46.4550 O.2   246  THR246     -0.2863
    128  CB        13.8060   15.7420   46.0110 C.3   246  THR246      0.1794
    129  OG1       14.3770   16.2070   44.7850 O.3   246  THR246     -0.2208
    130  CG2       12.3760   16.2840   46.2260 C.3   246  THR246      0.0378
    131  N         17.4060   19.8150   45.3690 N.3   249  LYS249     -0.1231
    132  CA        16.9920   20.2200   44.0360 C.3   249  LYS249      0.1693
    133  C         16.5190   21.6750   44.0590 C.2   249  LYS249      0.2592
    134  O         16.5080   22.3660   43.0260 O.2   249  LYS249     -0.2718
    135  CB        15.8680   19.2640   43.5480 C.3   249  LYS249      0.0285
    136  CG        15.2800   19.5960   42.1820 C.3   249  LYS249      0.0035
    137  CD        14.4790   18.4500   41.5580 C.3   249  LYS249      0.0206
    138  CE        13.0510   18.3950   42.1150 C.3   249  LYS249      0.1093
    139  NZ        12.2220   17.3040   41.4720 N.3   249  LYS249     -0.1314
    140  N         16.0580   22.0960   45.2420 N.am  250  TYR250     -0.1976
    141  CA        15.5630   23.4530   45.5280 C.3   250  TYR250      0.1639
    142  C         16.7090   24.3770   46.0190 C.2   250  TYR250      0.2290
    143  O         17.0730   25.3740   45.3390 O.2   250  TYR250     -0.2864
    144  CB        14.3320   23.3830   46.4940 C.3   250  TYR250      0.0560
    145  CG        13.2140   22.6200   45.8190 C.ar  250  TYR250     -0.0198
    146  CD1       12.3300   23.2800   44.9820 C.ar  250  TYR250     -0.0009
    147  CD2       13.1350   21.2160   45.8930 C.ar  250  TYR250     -0.0009
    148  CE1       11.3390   22.5730   44.2550 C.ar  250  TYR250      0.0417
    149  CE2       12.1480   20.5090   45.1820 C.ar  250  TYR250      0.0417
    150  CZ        11.2520   21.2130   44.3660 C.ar  250  TYR250      0.1957
    151  OH        10.2880   20.5710   43.6350 O.3   250  TYR250     -0.2866
    152  N          5.6790    8.5500   53.5580 N.3   279  LYS279     -0.1245
    153  CA         5.6160    7.4690   52.6040 C.3   279  LYS279      0.1561
    154  C          7.0380    7.1680   52.1320 C.2   279  LYS279      0.2260
    155  O          7.9680    7.9800   52.3950 O.2   279  LYS279     -0.2867
    156  CB         4.7410    7.9110   51.3940 C.3   279  LYS279      0.0271
    157  CG         5.2720    9.2120   50.7280 C.3   279  LYS279      0.0035
    158  CD         4.6660    9.4480   49.3960 C.3   279  LYS279      0.0206
    159  CE         5.3480   10.5320   48.6250 C.3   279  LYS279      0.1093
    160  NZ         4.5330   10.8410   47.4140 N.3   279  LYS279     -0.1314
    161  N          9.8960    7.5540   49.6550 N.3   281  ALA281     -0.1231
    162  CA        10.1910    8.7720   48.9160 C.3   281  ALA281      0.1694
    163  C         10.2390    8.3530   47.4480 C.2   281  ALA281      0.2591
    164  O          9.7800    9.0920   46.5250 O.2   281  ALA281     -0.2718
    165  CB        11.4810    9.2740   49.3060 C.3   281  ALA281      0.0304
    166  N         10.8650    7.1800   47.2530 N.am  282  GLN282     -0.1979
    167  CA        10.7390    6.4090   46.0360 C.3   282  GLN282      0.1601
    168  C         11.3340    5.0410   46.2040 C.2   282  GLN282      0.2287
    169  O         11.9240    4.7310   47.2540 O.2   282  GLN282     -0.2864
    170  CB        11.4410    7.1170   44.8850 C.3   282  GLN282      0.0394
    171  CG        12.8360    7.1770   45.0820 C.3   282  GLN282      0.0908
    172  CD        13.2330    8.4670   45.4430 C.2   282  GLN282      0.2608
    173  OE1       13.8570    8.6790   46.4810 O.2   282  GLN282     -0.2717
    174  NE2       12.9300    9.4000   44.5820 N.am  282  GLN282     -0.0878
    175  N         -3.0030   10.6680   46.1910 N.3   362  ASP362     -0.1239
    176  CA        -1.9960   11.1520   45.2410 C.3   362  ASP362      0.1674
    177  C         -2.1670   10.5760   43.8390 C.2   362  ASP362      0.2266
    178  O         -1.1960   10.4100   43.1290 O.2   362  ASP362     -0.2867
    179  CB        -0.6060   10.8280   45.7320 C.3   362  ASP362      0.1410
    180  CG         0.4300   11.7900   45.2400 C.2   362  ASP362      0.3668
    181  OD1        0.1470   12.9980   45.1290 O.co2 362  ASP362     -0.2456
    182  OD2        1.5910   11.3620   45.0430 O.co2 362  ASP362     -0.2456
@<TRIPOS>BOND
     1    33    32    2
     2    32    31    1
     3    30    31    1
     4    31    34    1
     5     2     1    1
     6     2     5    1
     7     2     3    1
     8     5     6    1
     9    18    17    2
    10    15     3   am
    11    15    16    1
    12     3     4    2
    13    34    35    1
    14     6     8   ar
    15     6     7   ar
    16    35    36   ar
    17    35    37   ar
    18    17    16    1
    19    36    38   ar
    20    11     8   ar
    21    11    13   ar
    22    37    40   ar
    23    37    39   ar
    24    38    39   ar
    25     8    10   ar
    26    40    42   ar
    27    39    41   ar
    28     7     9   ar
    29    21    22    2
    30    21    20    1
    31    42    43   ar
    32    13    14   ar
    33    41    43   ar
    34    77    76   ar
    35    10     9   ar
    36    10    12   ar
    37    19    20    1
    38    20    23    1
    39   139   138    1
    40   137   138    1
    41   137   136    1
    42    14    12   ar
    43    76    78   ar
    44    76    75    1
    45    24    23    1
    46    24    25    1
    47    25    26    1
    48    44    45    1
    49   136   135    1
    50    75    74    1
    51    48    45    1
    52    48    49    1
    53    74    71    1
    54    28    27    1
    55   134   133    2
    56    45    46    1
    57   178   177    2
    58    86    85    2
    59    47    46    2
    60    26    27    2
    61    49    51   am
    62    49    50    2
    63    71    72    1
    64    71    70    1
    65   135   132    1
    66   151   150    1
    67    27    29    1
    68    85    87   am
    69    85    84    1
    70    79    80    1
    71   177   176    1
    72    83    84    1
    73    83    80    1
    74    72    73    2
    75   132   133    1
    76   132   131    1
    77   133   140   am
    78   148   150   ar
    79   148   146   ar
    80   150   149   ar
    81   174   172   am
    82    80    81    1
    83   129   128    1
    84   170   171    1
    85   170   167    1
    86   146   145   ar
    87   182   180   ar
    88   171   172    1
    89   181   180   ar
    90   149   147   ar
    91   180   179    1
    92   176   179    1
    93   176   175    1
    94   140   141    1
    95   143   142    2
    96   172   173    2
    97   141   142    1
    98   141   144    1
    99   145   147   ar
   100   145   144    1
   101    95    93   ar
   102   128   130    1
   103   128   125    1
   104   167   168    1
   105   167   166    1
   106    81    88   am
   107    81    82    2
   108   168   169    2
   109    94    93   ar
   110    88    89    1
   111   127   126    2
   112    93    92    1
   113   164   163    2
   114    69    67    1
   115   103   102    1
   116   102   101    1
   117   125   126    1
   118   125   124    1
   119   112   110   ar
   120   112   113   ar
   121   166   163   am
   122   160   159    1
   123   163   162    1
   124    92    89    1
   125   110   109   ar
   126    89    90    1
   127    67    68    1
   128    67    66    2
   129   121   120    2
   130   113   115   ar
   131   113   111   ar
   132    90    91    2
   133   124   120   am
   134   101   100    1
   135   123   122    1
   136   159   158    1
   137   115   117   ar
   138   120   119    1
   139   109   111   ar
   140   109   108    1
   141    66    65    1
   142   162   165    1
   143   162   161    1
   144   111   114   ar
   145   108   105    1
   146   158   157    1
   147   122   119    1
   148   100    97    1
   149   117   116   ar
   150   119   118    1
   151    65    64    1
   152   107   106    2
   153   104   105    1
   154   104    98   am
   155    97    98    1
   156    97    96    1
   157   114   116   ar
   158   105   106    1
   159   157   156    1
   160    64    63    1
   161    58    56    1
   162    98    99    2
   163   156   153    1
   164    57    56    1
   165    56    53    1
   166   154   155    2
   167   154   153    1
   168    63    60    1
   169   153   152    1
   170    60    59    1
   171    60    61    1
   172    53    52    1
   173    53    54    1
   174    55    54    2
   175    61    62    2
