@<TRIPOS>MOLECULE
tmp/2uvjA00.pdb
 224 219 0 0 0
SMALL
GASTEIGER

@<TRIPOS>ATOM
      1  N         14.0020    9.6960   37.5290 N.3     9  TRP9       -0.1241
      2  CA        13.7830   11.1450   37.4470 C.3     9  TRP9        0.1605
      3  C         14.5480   11.8320   38.5670 C.2     9  TRP9        0.2264
      4  O         14.9070   11.2060   39.5660 O.2     9  TRP9       -0.2867
      5  CB        12.2890   11.5120   37.5650 C.3     9  TRP9        0.0550
      6  CG        11.7920   11.3980   38.9550 C.ar    9  TRP9        0.0003
      7  CD1       11.8290   12.3630   39.9220 C.ar    9  TRP9        0.0946
      8  CD2       11.2210   10.2300   39.5730 C.ar    9  TRP9        0.0152
      9  NE1       11.3180   11.8740   41.0950 N.ar    9  TRP9       -0.2442
     10  CE2       10.9250   10.5710   40.9100 C.ar    9  TRP9        0.0810
     11  CE3       10.9100    8.9340   39.1190 C.ar    9  TRP9        0.0012
     12  CZ2       10.3580    9.6690   41.8100 C.ar    9  TRP9        0.0191
     13  CZ3       10.3560    8.0230   40.0110 C.ar    9  TRP9        0.0001
     14  CH2       10.0840    8.3910   41.3450 C.ar    9  TRP9        0.0015
     15  N         21.1700   14.7200   41.1700 N.3    14  ARG14      -0.1245
     16  CA        20.8430   13.2860   41.1820 C.3    14  ARG14       0.1563
     17  C         21.2840   12.5540   39.9140 C.2    14  ARG14       0.2260
     18  O         21.8290   11.4460   39.9870 O.2    14  ARG14      -0.2867
     19  CB        19.3570   13.0800   41.4290 C.3    14  ARG14       0.0307
     20  CG        18.9490   11.6120   41.4630 C.3    14  ARG14       0.0489
     21  CD        17.4730   11.4330   41.7150 C.3    14  ARG14       0.2205
     22  NE        17.0600   11.9660   43.0050 N.pl3  14  ARG14      -0.0865
     23  CZ        15.8080   12.2220   43.3390 C.cat  14  ARG14       0.5346
     24  NH1       14.8260   12.0360   42.4510 N.pl3  14  ARG14       0.1354
     25  NH2       15.5200   12.6770   44.5560 N.pl3  14  ARG14       0.1354
     26  N         11.1540   15.4030   36.8660 N.3    41  TRP41      -0.1227
     27  CA         9.8560   14.8920   37.2670 C.3    41  TRP41       0.1737
     28  C          8.7640   15.1210   36.2010 C.2    41  TRP41       0.2595
     29  O          7.9030   14.2480   35.9800 O.2    41  TRP41      -0.2718
     30  CB         9.4080   15.5330   38.5880 C.3    41  TRP41       0.0564
     31  CG         8.0170   15.1090   38.9760 C.ar   41  TRP41       0.0003
     32  CD1        6.9020   15.9020   39.0630 C.ar   41  TRP41       0.0946
     33  CD2        7.5930   13.7830   39.3270 C.ar   41  TRP41       0.0152
     34  NE1        5.8150   15.1540   39.4470 N.ar   41  TRP41      -0.2442
     35  CE2        6.2080   13.8470   39.6150 C.ar   41  TRP41       0.0810
     36  CE3        8.2490   12.5460   39.4380 C.ar   41  TRP41       0.0012
     37  CZ2        5.4680   12.7270   40.0020 C.ar   41  TRP41       0.0191
     38  CZ3        7.5200   11.4310   39.8170 C.ar   41  TRP41       0.0001
     39  CH2        6.1440   11.5280   40.1120 C.ar   41  TRP41       0.0015
     40  N          8.7780   16.3000   35.5730 N.am   42  ASP42      -0.1974
     41  CA         7.7090   16.6480   34.6290 C.3    42  ASP42       0.1709
     42  C          7.6000   15.6570   33.4570 C.2    42  ASP42       0.2293
     43  O          8.5740   15.3960   32.7460 O.2    42  ASP42      -0.2864
     44  CB         7.8030   18.0950   34.1260 C.3    42  ASP42       0.1436
     45  CG         6.6130   18.4630   33.2570 C.2    42  ASP42       0.3671
     46  OD1        5.5490   18.8330   33.8050 O.co2  42  ASP42      -0.2456
     47  OD2        6.6340   18.3270   32.0230 O.co2  42  ASP42      -0.2456
     48  N          7.5080    5.4090   41.8660 N.3    64  ASN64      -0.1240
     49  CA         6.8410    6.1260   42.9490 C.3    64  ASN64       0.1653
     50  C          5.8050    5.2480   43.6160 C.2    64  ASN64       0.2266
     51  O          5.1860    4.3850   42.9670 O.2    64  ASN64      -0.2867
     52  CB         6.2110    7.4400   42.4260 C.3    64  ASN64       0.1155
     53  CG         6.5730    8.6560   43.3120 C.2    64  ASN64       0.2627
     54  OD1        7.5930    8.6390   44.0210 O.2    64  ASN64      -0.2716
     55  ND2        5.7330    9.7000   43.2870 N.am   64  ASN64      -0.0877
     56  N         10.0520    9.9480   53.2630 N.3   115  THR115     -0.1218
     57  CA         9.9470   11.3790   53.1040 C.3   115  THR115      0.1862
     58  C          8.5790   11.9270   53.5020 C.2   115  THR115      0.2287
     59  O          7.5940   11.2110   53.5420 O.2   115  THR115     -0.2866
     60  CB        10.3320   11.7930   51.6730 C.3   115  THR115      0.1770
     61  OG1       10.5150   13.2160   51.6270 O.3   115  THR115     -0.2211
     62  CG2        9.1860   11.4910   50.6650 C.3   115  THR115      0.0375
     63  N          6.3510   15.9290   53.1090 N.3   117  ARG117     -0.1245
     64  CA         6.4240   17.3520   52.7650 C.3   117  ARG117      0.1563
     65  C          6.4530   18.1340   54.0690 C.2   117  ARG117      0.2260
     66  O          5.6060   17.9450   54.9360 O.2   117  ARG117     -0.2867
     67  CB         5.2090   17.8250   51.9520 C.3   117  ARG117      0.0307
     68  CG         5.2190   17.4680   50.4630 C.3   117  ARG117      0.0489
     69  CD         4.0410   18.0850   49.6970 C.3   117  ARG117      0.2205
     70  NE         3.9740   17.5680   48.3220 N.pl3 117  ARG117     -0.0865
     71  CZ         4.6650   18.0510   47.2970 C.cat 117  ARG117      0.5346
     72  NH1        5.4880   19.1080   47.4490 N.pl3 117  ARG117      0.1354
     73  NH2        4.5240   17.4890   46.0950 N.pl3 117  ARG117      0.1354
     74  N          3.0560   24.7900   44.5200 N.3   161  GLU161     -0.1231
     75  CA         2.3840   24.2340   43.3410 C.3   161  GLU161      0.1699
     76  C          1.0750   23.6090   43.8360 C.2   161  GLU161      0.2592
     77  O          0.9260   23.3820   45.0460 O.2   161  GLU161     -0.2718
     78  CB         3.2560   23.1980   42.6190 C.3   161  GLU161      0.0402
     79  CG         4.2250   23.7940   41.6120 C.3   161  GLU161      0.1161
     80  CD         3.7300   23.7220   40.1700 C.2   161  GLU161      0.3649
     81  OE1        2.5180   23.4830   39.9450 O.co2 161  GLU161     -0.2457
     82  OE2        4.5600   23.9140   39.2490 O.co2 161  GLU161     -0.2457
     83  N          0.1440   23.3110   42.9450 N.am  162  HIS162     -0.1962
     84  CA        -1.1530   22.8260   43.3950 C.3   162  HIS162      0.1787
     85  C         -1.1250   21.4910   44.1610 C.2   162  HIS162      0.2620
     86  O         -1.8810   21.2910   45.0960 O.2   162  HIS162     -0.2715
     87  CB        -2.1750   22.8110   42.2590 C.3   162  HIS162      0.0785
     88  CG        -1.8420   21.8610   41.1550 C.ar  162  HIS162      0.0821
     89  ND1       -1.1480   22.2390   40.0290 N.ar  162  HIS162     -0.2267
     90  CD2       -2.1340   20.5510   40.9940 C.ar  162  HIS162      0.1154
     91  CE1       -1.0150   21.2000   39.2300 C.ar  162  HIS162      0.1986
     92  NE2       -1.6030   20.1640   39.7920 N.ar  162  HIS162     -0.2212
     93  N         -0.2390   20.5890   43.7660 N.am  163  GLN163     -0.1963
     94  CA        -0.0560   19.3540   44.5140 C.3   163  GLN163      0.1733
     95  C          0.4060   19.6230   45.9640 C.2   163  GLN163      0.2616
     96  O         -0.0960   18.9830   46.9050 O.2   163  GLN163     -0.2715
     97  CB         0.9220   18.4280   43.7740 C.3   163  GLN163      0.0408
     98  CG         1.1400   17.0470   44.4080 C.3   163  GLN163      0.0908
     99  CD         2.1890   16.2690   43.6210 C.2   163  GLN163      0.2608
    100  OE1        3.0540   16.8760   42.9810 O.2   163  GLN163     -0.2717
    101  NE2        2.1040   14.9480   43.6380 N.am  163  GLN163     -0.0878
    102  N          1.3230   20.5730   46.1390 N.am  164  ASP164     -0.1971
    103  CA         1.8140   20.9650   47.4780 C.3   164  ASP164      0.1709
    104  C          0.6620   21.4910   48.3270 C.2   164  ASP164      0.2293
    105  O          0.5130   21.1280   49.4870 O.2   164  ASP164     -0.2864
    106  CB         2.8780   22.0500   47.4160 C.3   164  ASP164      0.1436
    107  CG         3.8330   21.8780   46.2700 C.2   164  ASP164      0.3671
    108  OD1        4.6400   22.8020   46.0700 O.co2 164  ASP164     -0.2456
    109  OD2        3.8830   20.8540   45.5480 O.co2 164  ASP164     -0.2456
    110  N         10.2000   24.6630   35.6680 N.3   225  ASN225     -0.1225
    111  CA        10.1460   24.0400   36.9850 C.3   225  ASN225      0.1785
    112  C         10.2030   25.1220   38.0580 C.2   225  ASN225      0.2597
    113  O         10.8740   26.1290   37.8790 O.2   225  ASN225     -0.2718
    114  CB        11.2960   23.0550   37.1480 C.3   225  ASN225      0.1169
    115  CG        11.2450   21.9290   36.1410 C.2   225  ASN225      0.2627
    116  OD1       10.2560   21.2040   36.0520 O.2   225  ASN225     -0.2716
    117  ND2       12.3230   21.7680   35.3840 N.am  225  ASN225     -0.0877
    118  N          9.5200   24.8960   39.1720 N.am  226  MET226     -0.1965
    119  CA         9.3730   25.8930   40.2330 C.3   226  MET226      0.1736
    120  C         10.7320   26.3710   40.7570 C.2   226  MET226      0.2616
    121  O         10.9460   27.5610   40.9490 O.2   226  MET226     -0.2715
    122  CB         8.5230   25.3090   41.3720 C.3   226  MET226      0.0427
    123  CG         8.1740   26.2600   42.5000 C.3   226  MET226      0.0599
    124  SD         6.7610   25.6850   43.4690 S.3   226  MET226     -0.1393
    125  CE         7.3520   24.1460   44.1050 C.3   226  MET226      0.0692
    126  N         11.6410   25.4250   40.9690 N.am  227  TYR227     -0.1974
    127  CA        12.9910   25.7060   41.4880 C.3   227  TYR227      0.1639
    128  C         13.9100   26.4510   40.5020 C.2   227  TYR227      0.2290
    129  O         15.0050   26.9070   40.8660 O.2   227  TYR227     -0.2864
    130  CB        13.6550   24.4040   41.9550 C.3   227  TYR227      0.0560
    131  CG        13.6120   23.2760   40.9490 C.ar  227  TYR227     -0.0198
    132  CD1       14.6960   23.0250   40.1010 C.ar  227  TYR227     -0.0009
    133  CD2       12.5010   22.4390   40.8630 C.ar  227  TYR227     -0.0009
    134  CE1       14.6470   21.9780   39.1650 C.ar  227  TYR227      0.0417
    135  CE2       12.4420   21.4150   39.9470 C.ar  227  TYR227      0.0417
    136  CZ        13.5170   21.1800   39.1060 C.ar  227  TYR227      0.1957
    137  OH        13.4270   20.1460   38.2100 O.3   227  TYR227     -0.2866
    138  N          7.7710   20.8750   50.9080 N.3   242  MET242     -0.1230
    139  CA         8.4760   20.0280   49.9640 C.3   242  MET242      0.1702
    140  C          9.1060   18.8210   50.6580 C.2   242  MET242      0.2592
    141  O          9.4060   18.8770   51.8410 O.2   242  MET242     -0.2718
    142  CB         9.5680   20.8770   49.2720 C.3   242  MET242      0.0401
    143  CG        10.3360   20.2040   48.1530 C.3   242  MET242      0.0596
    144  SD         9.2940   19.5850   46.8310 S.3   242  MET242     -0.1393
    145  CE         8.3110   21.0110   46.4230 C.3   242  MET242      0.0692
    146  N          9.2700   17.7330   49.8980 N.am  243  TRP243     -0.1976
    147  CA         9.9380   16.4980   50.3460 C.3   243  TRP243      0.1640
    148  C         11.3650   16.7350   50.8440 C.2   243  TRP243      0.2290
    149  O         12.1780   17.3470   50.1630 O.2   243  TRP243     -0.2864
    150  CB         9.9980   15.5040   49.1710 C.3   243  TRP243      0.0576
    151  CG         8.7040   15.3380   48.4870 C.ar  243  TRP243      0.0006
    152  CD1        8.3820   15.7380   47.2080 C.ar  243  TRP243      0.0946
    153  CD2        7.5090   14.7990   49.0570 C.ar  243  TRP243      0.0152
    154  NE1        7.0630   15.4360   46.9520 N.ar  243  TRP243     -0.2442
    155  CE2        6.5060   14.8520   48.0570 C.ar  243  TRP243      0.0810
    156  CE3        7.1930   14.2250   50.3070 C.ar  243  TRP243      0.0012
    157  CZ2        5.2010   14.3900   48.2680 C.ar  243  TRP243      0.0191
    158  CZ3        5.9000   13.7640   50.5190 C.ar  243  TRP243      0.0001
    159  CH2        4.9110   13.8620   49.5020 C.ar  243  TRP243      0.0015
    160  N         13.4710   14.4710   50.8820 N.3   245  SER245     -0.1202
    161  CA        14.2410   13.5770   50.0110 C.3   245  SER245      0.2020
    162  C         14.8020   14.2360   48.7370 C.2   245  SER245      0.2619
    163  O         15.6830   13.6650   48.0730 O.2   245  SER245     -0.2717
    164  CB        13.3990   12.3650   49.6250 C.3   245  SER245      0.2103
    165  OG        12.3200   12.7460   48.8120 O.3   245  SER245     -0.2182
    166  N         14.2900   15.4160   48.3940 N.am  246  THR246     -0.1952
    167  CA        14.7460   16.1220   47.2080 C.3   246  THR246      0.1897
    168  C         14.9050   17.6280   47.4570 C.2   246  THR246      0.2313
    169  O         14.9350   18.4190   46.5080 O.2   246  THR246     -0.2863
    170  CB        13.8190   15.8110   45.9960 C.3   246  THR246      0.1794
    171  OG1       14.3720   16.3640   44.7850 O.3   246  THR246     -0.2208
    172  CG2       12.4450   16.4730   46.1430 C.3   246  THR246      0.0378
    173  N         17.4040   19.9560   45.4040 N.3   249  LYS249     -0.1231
    174  CA        16.9920   20.3850   44.0580 C.3   249  LYS249      0.1693
    175  C         16.5070   21.8420   44.1320 C.2   249  LYS249      0.2592
    176  O         16.6220   22.6170   43.1630 O.2   249  LYS249     -0.2718
    177  CB        15.8990   19.4450   43.5180 C.3   249  LYS249      0.0285
    178  CG        15.3900   19.7740   42.1210 C.3   249  LYS249      0.0035
    179  CD        14.5750   18.6340   41.5120 C.3   249  LYS249      0.0206
    180  CE        13.1960   18.5390   42.1520 C.3   249  LYS249      0.1093
    181  NZ        12.3940   17.3690   41.6040 N.3   249  LYS249     -0.1314
    182  N         15.9910   22.2100   45.3040 N.am  250  TYR250     -0.1976
    183  CA        15.4680   23.5510   45.5840 C.3   250  TYR250      0.1639
    184  C         16.5110   24.4890   46.1730 C.2   250  TYR250      0.2290
    185  O         16.6870   25.6270   45.7000 O.2   250  TYR250     -0.2864
    186  CB        14.2320   23.4560   46.4930 C.3   250  TYR250      0.0560
    187  CG        13.0280   23.0440   45.6980 C.ar  250  TYR250     -0.0198
    188  CD1       12.1540   24.0030   45.1990 C.ar  250  TYR250     -0.0009
    189  CD2       12.7900   21.7030   45.3920 C.ar  250  TYR250     -0.0009
    190  CE1       11.0690   23.6530   44.4170 C.ar  250  TYR250      0.0417
    191  CE2       11.6860   21.3350   44.6070 C.ar  250  TYR250      0.0417
    192  CZ        10.8440   22.3220   44.1220 C.ar  250  TYR250      0.1957
    193  OH         9.7570   21.9940   43.3520 O.3   250  TYR250     -0.2866
    194  N          5.6150    8.8510   53.4490 N.3   279  LYS279     -0.1245
    195  CA         5.5860    7.6980   52.5450 C.3   279  LYS279      0.1561
    196  C          6.9810    7.2800   52.1370 C.2   279  LYS279      0.2260
    197  O          7.9490    8.0450   52.2910 O.2   279  LYS279     -0.2867
    198  CB         4.8110    8.0560   51.2670 C.3   279  LYS279      0.0271
    199  CG         5.3560    9.2800   50.5870 C.3   279  LYS279      0.0035
    200  CD         4.8770    9.3830   49.1400 C.3   279  LYS279      0.0206
    201  CE         5.1080   10.7820   48.6580 C.3   279  LYS279      0.1093
    202  NZ         5.1430   10.9770   47.1600 N.3   279  LYS279     -0.1314
    203  N          9.7340    7.4140   49.7180 N.3   281  ALA281     -0.1231
    204  CA        10.0240    8.5190   48.8020 C.3   281  ALA281      0.1694
    205  C          9.9650    8.0460   47.3560 C.2   281  ALA281      0.2591
    206  O          9.4560    8.7460   46.4740 O.2   281  ALA281     -0.2718
    207  CB        11.4100    9.1050   49.1040 C.3   281  ALA281      0.0304
    208  N         10.5840    6.8910   47.1200 N.am  282  GLN282     -0.1979
    209  CA        10.6990    6.2870   45.7890 C.3   282  GLN282      0.1601
    210  C         11.2780    4.8870   45.9540 C.2   282  GLN282      0.2287
    211  O         11.7400    4.5140   47.0390 O.2   282  GLN282     -0.2864
    212  CB        11.5780    7.1340   44.8430 C.3   282  GLN282      0.0394
    213  CG        12.8870    7.6930   45.4940 C.3   282  GLN282      0.0908
    214  CD        13.7170    8.4990   44.5260 C.2   282  GLN282      0.2608
    215  OE1       13.4320    9.6820   44.2730 O.2   282  GLN282     -0.2717
    216  NE2       14.7200    7.8900   43.9700 N.am  282  GLN282     -0.0878
    217  N         -2.8880   10.6040   45.9600 N.3   362  ASP362     -0.1239
    218  CA        -1.8850   11.1280   45.0470 C.3   362  ASP362      0.1674
    219  C         -2.0760   10.5480   43.6400 C.2   362  ASP362      0.2266
    220  O         -1.1510   10.4960   42.8520 O.2   362  ASP362     -0.2867
    221  CB        -0.4720   10.8310   45.5760 C.3   362  ASP362      0.1410
    222  CG         0.5680   11.7610   44.9970 C.2   362  ASP362      0.3668
    223  OD1        0.2400   12.9440   44.7170 O.co2 362  ASP362     -0.2456
    224  OD2        1.7450   11.3960   44.7870 O.co2 362  ASP362     -0.2456
@<TRIPOS>BOND
     1    47    45   ar
     2    43    42    2
     3    45    46   ar
     4    45    44    1
     5    42    41    1
     6    44    41    1
     7    41    40    1
     8   117   115   am
     9    40    28   am
    10   110   111    1
    11    29    28    2
    12   116   115    2
    13   115   114    1
    14    28    27    1
    15    26    27    1
    16   111   114    1
    17   111   112    1
    18    27    30    1
    19     2     1    1
    20     2     5    1
    21     2     3    1
    22     5     6    1
    23   113   112    2
    24   112   118   am
    25   137   136    1
    26     3     4    2
    27    30    31    1
    28     6     8   ar
    29     6     7   ar
    30    31    32   ar
    31    31    33   ar
    32    32    34   ar
    33   136   134   ar
    34   136   135   ar
    35    11     8   ar
    36    11    13   ar
    37   134   132   ar
    38   118   119    1
    39    91    92   ar
    40    91    89   ar
    41    82    80   ar
    42    33    36   ar
    43    33    35   ar
    44    36    38   ar
    45    34    35   ar
    46     8    10   ar
    47    35    37   ar
    48    92    90   ar
    49    38    39   ar
    50    17    18    2
    51    17    16    1
    52     7     9   ar
    53    81    80   ar
    54   135   133   ar
    55    37    39   ar
    56    13    14   ar
    57    89    88   ar
    58   132   131   ar
    59    80    79    1
    60   119   120    1
    61   119   122    1
    62   128   129    2
    63   128   127    1
    64   120   121    2
    65   120   126   am
    66   133   131   ar
    67    10     9   ar
    68    10    12   ar
    69   131   130    1
    70   126   127    1
    71    90    88   ar
    72    88    87    1
    73    15    16    1
    74    16    19    1
    75    14    12   ar
    76   122   123    1
    77    19    20    1
    78    20    21    1
    79   127   130    1
    80   179   178    1
    81   179   180    1
    82   181   180    1
    83    79    78    1
    84    21    22    1
    85    48    49    1
    86   178   177    1
    87    87    84    1
    88    52    49    1
    89    52    53    1
    90    24    23    1
    91   123   124    1
    92    78    75    1
    93   220   219    2
    94    83    84    1
    95    83    76   am
    96    49    50    1
    97    51    50    2
    98   100    99    2
    99    22    23    2
   100   176   175    2
   101    55    53   am
   102    53    54    2
   103    23    25    1
   104    75    76    1
   105    75    74    1
   106   193   192    1
   107    84    85    1
   108   124   125    1
   109   177   174    1
   110    99   101   am
   111    99    98    1
   112   219   218    1
   113    93    85   am
   114    93    94    1
   115    97    98    1
   116    97    94    1
   117    76    77    2
   118   216   214   am
   119   174   175    1
   120   174   173    1
   121   192   190   ar
   122   192   191   ar
   123   175   182   am
   124    85    86    2
   125   215   214    2
   126   190   188   ar
   127    94    95    1
   128   214   213    1
   129   191   189   ar
   130   223   222   ar
   131   171   170    1
   132   224   222   ar
   133   212   213    1
   134   212   209    1
   135   222   221    1
   136   218   221    1
   137   218   217    1
   138   188   187   ar
   139   182   183    1
   140   189   187   ar
   141   109   107   ar
   142   183   184    1
   143   183   186    1
   144   187   186    1
   145   185   184    2
   146   209   210    1
   147   209   208    1
   148   210   211    2
   149    95   102   am
   150    95    96    2
   151   170   172    1
   152   170   167    1
   153   108   107   ar
   154    73    71    1
   155   102   103    1
   156   107   106    1
   157   145   144    1
   158   206   205    2
   159   169   168    2
   160   144   143    1
   161   154   152   ar
   162   154   155   ar
   163   208   205   am
   164   202   201    1
   165   167   168    1
   166   167   166    1
   167   152   151   ar
   168    71    72    1
   169    71    70    2
   170   205   204    1
   171   106   103    1
   172   103   104    1
   173   155   157   ar
   174   155   153   ar
   175   163   162    2
   176   143   142    1
   177   157   159   ar
   178    70    69    1
   179   104   105    2
   180   166   162   am
   181   151   153   ar
   182   151   150    1
   183   201   200    1
   184   162   161    1
   185   204   207    1
   186   204   203    1
   187   165   164    1
   188   153   156   ar
   189   200   199    1
   190   150   147    1
   191   142   139    1
   192   159   158   ar
   193   164   161    1
   194    69    68    1
   195   146   147    1
   196   146   140   am
   197   139   140    1
   198   139   138    1
   199   161   160    1
   200   149   148    2
   201   156   158   ar
   202   147   148    1
   203    68    67    1
   204   199   198    1
   205   140   141    2
   206    62    60    1
   207   198   195    1
   208    61    60    1
   209    60    57    1
   210    67    64    1
   211   196   197    2
   212   196   195    1
   213   195   194    1
   214    64    63    1
   215    64    65    1
   216    57    56    1
   217    57    58    1
   218    58    59    2
   219    65    66    2
