@<TRIPOS>MOLECULE
tmp/2uvmA00.pdb
 138 133 0 0 0
SMALL
GASTEIGER

@<TRIPOS>ATOM
      1  N         15.5910    0.7310   17.5940 N.3    14  LYS14      -0.1231
      2  CA        16.4240    1.9020   17.4200 C.3    14  LYS14       0.1693
      3  C         16.2980    2.7140   18.7000 C.2    14  LYS14       0.2592
      4  O         15.2030    3.0050   19.1620 O.2    14  LYS14      -0.2718
      5  CB        15.9570    2.7220   16.2050 C.3    14  LYS14       0.0285
      6  CG        16.6510    4.0790   16.0410 C.3    14  LYS14       0.0035
      7  CD        16.3380    4.7150   14.6860 C.3    14  LYS14       0.0206
      8  CE        17.0560    6.0720   14.4870 C.3    14  LYS14       0.1093
      9  NZ        16.4160    7.2100   15.2270 N.3    14  LYS14      -0.1314
     10  N         17.4350    3.0940   19.2630 N.am   15  ARG15      -0.1966
     11  CA        17.4410    3.8650   20.5030 C.3    15  ARG15       0.1729
     12  C         17.1220    5.3530   20.3890 C.2    15  ARG15       0.2617
     13  O         17.5300    6.0310   19.4370 O.2    15  ARG15      -0.2715
     14  CB        18.8040    3.7050   21.1700 C.3    15  ARG15       0.0348
     15  CG        18.9310    4.3160   22.5390 C.3    15  ARG15       0.0492
     16  CD        17.8360    3.8430   23.4480 C.3    15  ARG15       0.2205
     17  NE        18.2540    3.8250   24.8500 N.pl3  15  ARG15      -0.0865
     18  CZ        17.4150    3.9430   25.8740 C.cat  15  ARG15       0.5346
     19  NH1       16.1200    4.1060   25.6460 N.pl3  15  ARG15       0.1354
     20  NH2       17.8630    3.8680   27.1230 N.pl3  15  ARG15       0.1354
     21  N         16.4030    5.8690   21.3850 N.am   16  GLY16      -0.1940
     22  CA        16.0970    7.2870   21.4110 C.3    16  GLY16       0.2014
     23  C         17.4060    8.0280   21.6160 C.2    16  GLY16       0.2639
     24  O         18.3490    7.4940   22.2010 O.2    16  GLY16      -0.2714
     25  N         17.4830    9.2540   21.1180 N.am   17  GLU17      -0.1963
     26  CA        18.6910   10.0530   21.2640 C.3    17  GLU17       0.1733
     27  C         18.6070   10.8930   22.5420 C.2    17  GLU17       0.2616
     28  O         19.4480   10.7670   23.4440 O.2    17  GLU17      -0.2715
     29  CB        18.8710   10.9640   20.0500 C.3    17  GLU17       0.0429
     30  CG        18.7550   10.2690   18.6880 C.3    17  GLU17       0.1163
     31  CD        19.8390    9.2310   18.4280 C.2    17  GLU17       0.3649
     32  OE1       20.9640    9.3730   18.9450 O.co2  17  GLU17      -0.2457
     33  OE2       19.5720    8.2710   17.6870 O.co2  17  GLU17      -0.2457
     34  N         17.5870   11.7340   22.6230 N.am   18  TYR18      -0.1960
     35  CA        17.4090   12.5940   23.7870 C.3    18  TYR18       0.1771
     36  C         16.3020   12.1400   24.7160 C.2    18  TYR18       0.2619
     37  O         16.1160   12.7170   25.7880 O.2    18  TYR18      -0.2715
     38  CB        17.1320   14.0330   23.3500 C.3    18  TYR18       0.0574
     39  CG        18.3700   14.7680   22.9160 C.ar   18  TYR18      -0.0198
     40  CD1       19.2930   15.2230   23.8580 C.ar   18  TYR18      -0.0009
     41  CD2       18.6310   15.0010   21.5630 C.ar   18  TYR18      -0.0009
     42  CE1       20.4420   15.8970   23.4670 C.ar   18  TYR18       0.0417
     43  CE2       19.7780   15.6690   21.1610 C.ar   18  TYR18       0.0417
     44  CZ        20.6770   16.1150   22.1190 C.ar   18  TYR18       0.1957
     45  OH        21.8100   16.7850   21.7350 O.3    18  TYR18      -0.2866
     46  N         15.5640   11.1220   24.2960 N.am   19  ILE19      -0.1977
     47  CA        14.4710   10.5780   25.0790 C.3    19  ILE19       0.1596
     48  C         14.8630    9.1200   25.3090 C.2    19  ILE19       0.2287
     49  O         15.4320    8.4890   24.4180 O.2    19  ILE19      -0.2864
     50  CB        13.1270   10.6780   24.2620 C.3    19  ILE19       0.0276
     51  CG1       11.9640   11.0180   25.1830 C.3    19  ILE19       0.0022
     52  CG2       12.8670    9.4090   23.4950 C.3    19  ILE19       0.0022
     53  CD1       11.8360   12.4860   25.4170 C.3    19  ILE19       0.0001
     54  N         12.5840    2.3530   19.7330 N.3    23  ARG23      -0.1245
     55  CA        11.5250    2.3350   18.7260 C.3    23  ARG23       0.1563
     56  C         11.6610    1.1040   17.8450 C.2    23  ARG23       0.2260
     57  O         12.7610    0.8160   17.3520 O.2    23  ARG23      -0.2867
     58  CB        11.6220    3.5880   17.8450 C.3    23  ARG23       0.0307
     59  CG        11.3810    4.8710   18.6140 C.3    23  ARG23       0.0489
     60  CD        11.4140    6.1250   17.7540 C.3    23  ARG23       0.2205
     61  NE        11.1940    7.2640   18.6400 N.pl3  23  ARG23      -0.0865
     62  CZ        12.1620    8.0720   19.0470 C.cat  23  ARG23       0.5346
     63  NH1       13.3990    7.8740   18.6210 N.pl3  23  ARG23       0.1354
     64  NH2       11.9020    9.0450   19.9050 N.pl3  23  ARG23       0.1354
     65  N         11.6740   -1.0620   14.5870 N.3    25  ARG25      -0.1245
     66  CA        11.8980   -0.6960   13.2060 C.3    25  ARG25       0.1563
     67  C         12.2890   -1.9050   12.3730 C.2    25  ARG25       0.2260
     68  O         12.9180   -2.8360   12.8870 O.2    25  ARG25      -0.2867
     69  CB        13.0460    0.3130   13.0980 C.3    25  ARG25       0.0307
     70  CG        12.7540    1.6950   13.5830 C.3    25  ARG25       0.0489
     71  CD        11.9620    2.4430   12.5330 C.3    25  ARG25       0.2205
     72  NE        11.7810    3.8350   12.8980 N.pl3  25  ARG25      -0.0865
     73  CZ        10.9980    4.2590   13.8740 C.cat  25  ARG25       0.5346
     74  NH1       10.3200    3.3890   14.6040 N.pl3  25  ARG25       0.1354
     75  NH2       10.8650    5.5610   14.0930 N.pl3  25  ARG25       0.1354
     76  N         11.3160    5.9130    7.2800 N.3    52  LEU52      -0.1231
     77  CA        11.3570    6.8400    8.4030 C.3    52  LEU52       0.1693
     78  C         12.8200    7.2490    8.6660 C.2    52  LEU52       0.2592
     79  O         13.1110    8.3960    9.0260 O.2    52  LEU52      -0.2718
     80  CB        10.7960    6.1730    9.6570 C.3    52  LEU52       0.0284
     81  CG         9.2920    5.8990    9.6880 C.3    52  LEU52       0.0019
     82  CD1        8.9160    5.3280   11.0740 C.3    52  LEU52       0.0001
     83  CD2        8.5120    7.1920    9.4250 C.3    52  LEU52       0.0001
     84  N         13.7360    6.2990    8.4760 N.am   53  ASN53      -0.1960
     85  CA        15.1670    6.5410    8.7040 C.3    53  ASN53       0.1819
     86  C         15.9580    6.1630    7.4680 C.2    53  ASN53       0.2621
     87  O         15.6000    5.2310    6.7580 O.2    53  ASN53      -0.2715
     88  CB        15.6390    5.6960    9.8700 C.3    53  ASN53       0.1195
     89  CG        14.7480    5.8180   11.0530 C.2    53  ASN53       0.2630
     90  OD1       13.9990    4.8960   11.3850 O.2    53  ASN53      -0.2716
     91  ND2       14.7880    6.9700   11.6940 N.am   53  ASN53      -0.0877
     92  N         17.0580    6.8660    7.2270 N.am   54  ASN54      -0.1958
     93  CA        17.8910    6.6170    6.0640 C.3    54  ASN54       0.1819
     94  C         19.3100    7.0970    6.3530 C.2    54  ASN54       0.2621
     95  O         19.5590    8.3030    6.4610 O.2    54  ASN54      -0.2715
     96  CB        17.2970    7.3610    4.8570 C.3    54  ASN54       0.1195
     97  CG        18.0860    7.1570    3.5900 C.2    54  ASN54       0.2630
     98  OD1       19.1310    6.4940    3.5800 O.2    54  ASN54      -0.2716
     99  ND2       17.6020    7.7520    2.5060 N.am   54  ASN54      -0.0877
    100  N         20.2310    6.1410    6.4790 N.am   55  PHE55      -0.1974
    101  CA        21.6380    6.4440    6.7570 C.3    55  PHE55       0.1639
    102  C         22.4960    5.8440    5.6770 C.2    55  PHE55       0.2290
    103  O         22.0430    5.0060    4.9020 O.2    55  PHE55      -0.2864
    104  CB        22.0930    5.8020    8.0830 C.3    55  PHE55       0.0560
    105  CG        21.1580    6.0210    9.2130 C.ar   55  PHE55      -0.0200
    106  CD1       20.9030    7.2990    9.6860 C.ar   55  PHE55      -0.0042
    107  CD2       20.4420    4.9550    9.7460 C.ar   55  PHE55      -0.0042
    108  CE1       19.9520    7.5050   10.6480 C.ar   55  PHE55      -0.0003
    109  CE2       19.4980    5.1660   10.7000 C.ar   55  PHE55      -0.0003
    110  CZ        19.2510    6.4560   11.1510 C.ar   55  PHE55      -0.0000
    111  N         26.1530   11.6100    7.9890 N.3    79  GLN79      -0.1245
    112  CA        24.8740   11.9390    7.3910 C.3    79  GLN79       0.1566
    113  C         25.1020   13.2700    6.7000 C.2    79  GLN79       0.2260
    114  O         24.9440   14.3410    7.2950 O.2    79  GLN79      -0.2867
    115  CB        23.7590   12.0610    8.4380 C.3    79  GLN79       0.0367
    116  CG        22.3390   12.2170    7.8260 C.3    79  GLN79       0.0905
    117  CD        21.8040   10.9280    7.2020 C.2    79  GLN79       0.2608
    118  OE1       22.4720   10.2880    6.3840 O.2    79  GLN79      -0.2717
    119  NE2       20.5840   10.5510    7.5780 N.am   79  GLN79      -0.0878
    120  N         27.3370   11.2170   12.9440 N.3    84  ILE84      -0.1245
    121  CA        26.3060   10.9280   13.9270 C.3    84  ILE84       0.1561
    122  C         26.4850    9.5200   14.4600 C.2    84  ILE84       0.2260
    123  O         27.1530    8.6930   13.8410 O.2    84  ILE84      -0.2867
    124  CB        24.8740   11.0240   13.3080 C.3    84  ILE84       0.0252
    125  CG1       24.7010    9.9600   12.2110 C.3    84  ILE84       0.0019
    126  CG2       24.6350   12.4440   12.7700 C.3    84  ILE84       0.0019
    127  CD1       23.3430    9.9810   11.5210 C.3    84  ILE84       0.0001
    128  N         24.1890    6.2530   15.9380 N.3    86  ARG86      -0.1245
    129  CA        22.8440    5.6940   16.0810 C.3    86  ARG86       0.1563
    130  C         23.0100    4.3690   16.7840 C.2    86  ARG86       0.2260
    131  O         23.9420    3.6360   16.4980 O.2    86  ARG86      -0.2867
    132  CB        22.1880    5.4910   14.7170 C.3    86  ARG86       0.0307
    133  CG        21.7480    6.7930   14.0810 C.3    86  ARG86       0.0489
    134  CD        20.7700    7.5090   15.0250 C.3    86  ARG86       0.2205
    135  NE        20.3280    8.7860   14.4720 N.pl3  86  ARG86      -0.0865
    136  CZ        20.9070    9.9570   14.7050 C.cat  86  ARG86       0.5346
    137  NH1       21.9700   10.0360   15.5020 N.pl3  86  ARG86       0.1354
    138  NH2       20.4250   11.0510   14.1190 N.pl3  86  ARG86       0.1354
@<TRIPOS>BOND
     1    99    97   am
     2    98    97    2
     3    97    96    1
     4    96    93    1
     5   103   102    2
     6   102   101    1
     7    93    94    1
     8    93    92    1
     9    94    95    2
    10    94   100   am
    11   118   117    2
    12   100   101    1
    13   113   114    2
    14   113   112    1
    15   101   104    1
    16    87    86    2
    17   117   119   am
    18   117   116    1
    19    92    86   am
    20    76    77    1
    21   112   111    1
    22   112   115    1
    23    86    85    1
    24   116   115    1
    25   104   105    1
    26    77    78    1
    27    77    80    1
    28    84    78   am
    29    84    85    1
    30    78    79    2
    31    85    88    1
    32   105   106   ar
    33   105   107   ar
    34    83    81    1
    35    80    81    1
    36   106   108   ar
    37    81    82    1
    38   107   109   ar
    39    88    89    1
    40   108   110   ar
    41   109   110   ar
    42    89    90    2
    43    89    91   am
    44   127   125    1
    45   125   124    1
    46    67    68    2
    47    67    66    1
    48    71    72    1
    49    71    70    1
    50   126   124    1
    51    72    73    2
    52   120   121    1
    53    69    66    1
    54    69    70    1
    55    66    65    1
    56   124   121    1
    57   123   122    2
    58    73    75    1
    59    73    74    1
    60   121   122    1
    61   133   132    1
    62   133   134    1
    63   138   136    1
    64   135   136    2
    65   135   134    1
    66     8     7    1
    67     8     9    1
    68     7     6    1
    69   136   137    1
    70   132   129    1
    71   128   129    1
    72     6     5    1
    73   129   130    1
    74     5     2    1
    75   131   130    2
    76    57    56    2
    77     2     1    1
    78     2     3    1
    79    33    31   ar
    80    60    59    1
    81    60    61    1
    82    56    55    1
    83    58    59    1
    84    58    55    1
    85    31    30    1
    86    31    32   ar
    87    63    62    1
    88    61    62    2
    89    30    29    1
    90     3     4    2
    91     3    10   am
    92    55    54    1
    93    62    64    1
    94    10    11    1
    95    13    12    2
    96    29    26    1
    97    12    11    1
    98    12    21   am
    99    11    14    1
   100    25    26    1
   101    25    23   am
   102    43    41   ar
   103    43    44   ar
   104    14    15    1
   105    26    27    1
   106    21    22    1
   107    22    23    1
   108    41    39   ar
   109    23    24    2
   110    45    44    1
   111    44    42   ar
   112    15    16    1
   113    27    34   am
   114    27    28    2
   115    34    35    1
   116    39    38    1
   117    39    40   ar
   118    38    35    1
   119    16    17    1
   120    42    40   ar
   121    52    50    1
   122    35    36    1
   123    50    47    1
   124    50    51    1
   125    46    36   am
   126    46    47    1
   127    49    48    2
   128    36    37    2
   129    17    18    2
   130    47    48    1
   131    51    53    1
   132    19    18    1
   133    18    20    1
