@<TRIPOS>MOLECULE
tmp/2uvnA01.pdb
 159 152 0 0 0
SMALL
GASTEIGER

@<TRIPOS>ATOM
      1  N        -49.7050   48.1960  -37.7760 N.3    66  LEU66      -0.1231
      2  CA       -49.4460   47.9370  -36.3690 C.3    66  LEU66       0.1693
      3  C        -49.6950   46.4810  -35.9720 C.2    66  LEU66       0.2592
      4  O        -49.5040   46.1020  -34.8130 O.2    66  LEU66      -0.2718
      5  CB       -50.2850   48.8780  -35.5060 C.3    66  LEU66       0.0284
      6  CG       -49.8190   50.3360  -35.5260 C.3    66  LEU66       0.0019
      7  CD1      -50.7900   51.2070  -34.7460 C.3    66  LEU66       0.0001
      8  CD2      -48.4230   50.4200  -34.9350 C.3    66  LEU66       0.0001
      9  N        -50.0990   45.6710  -36.9490 N.am   67  THR67      -0.1953
     10  CA       -50.3910   44.2540  -36.7350 C.3    67  THR67       0.1897
     11  C        -49.5130   43.3850  -37.6280 C.2    67  THR67       0.2313
     12  O        -48.8720   43.8850  -38.5460 O.2    67  THR67      -0.2863
     13  CB       -51.8450   43.9460  -37.0740 C.3    67  THR67       0.1794
     14  OG1      -52.0090   43.9550  -38.4960 O.3    67  THR67      -0.2208
     15  CG2      -52.7530   44.9920  -36.4720 C.3    67  THR67       0.0378
     16  N        -59.2460   42.9530  -37.4270 N.3    80  ASP80      -0.1225
     17  CA       -58.4480   43.1410  -36.2200 C.3    80  ASP80       0.1805
     18  C        -57.2770   44.0720  -36.5300 C.2    80  ASP80       0.2598
     19  O        -56.1320   43.6350  -36.5890 O.2    80  ASP80      -0.2718
     20  CB       -57.9360   41.7730  -35.7550 C.3    80  ASP80       0.1424
     21  CG       -57.4980   41.7650  -34.3110 C.2    80  ASP80       0.3668
     22  OD1      -58.0130   42.5900  -33.5310 O.co2  80  ASP80      -0.2456
     23  OD2      -56.6530   40.9150  -33.9500 O.co2  80  ASP80      -0.2456
     24  N        -57.5720   45.3500  -36.7440 N.am   81  THR81      -0.1939
     25  CA       -56.5450   46.3440  -37.0550 C.3    81  THR81       0.2013
     26  C        -57.0140   47.7340  -36.6420 C.2    81  THR81       0.2484
     27  O        -58.2050   48.0240  -36.6390 O.2    81  THR81      -0.2729
     28  CB       -56.2200   46.4070  -38.5760 C.3    81  THR81       0.1807
     29  OG1      -57.3360   46.9610  -39.2790 O.3    81  THR81      -0.2208
     30  CG2      -55.9210   45.0280  -39.1370 C.3    81  THR81       0.0379
     31  N        -56.0790   48.6230  -36.2990 N.am   82  PRO82      -0.2715
     32  CA       -56.5000   49.9690  -35.9000 C.3    82  PRO82       0.1521
     33  C        -57.1420   50.7080  -37.0740 C.2    82  PRO82       0.2440
     34  O        -56.7220   50.5510  -38.2140 O.2    82  PRO82      -0.2731
     35  CB       -55.1940   50.6200  -35.4520 C.3    82  PRO82       0.0310
     36  CG       -54.3420   49.4460  -35.0350 C.3    82  PRO82       0.0237
     37  CD       -54.6330   48.4380  -36.1070 C.3    82  PRO82       0.0939
     38  N        -58.1710   51.5210  -36.8090 N.am   83  PRO83      -0.2716
     39  CA       -58.8380   52.2630  -37.8790 C.3    83  PRO83       0.1536
     40  C        -57.9050   53.2430  -38.5780 C.2    83  PRO83       0.2598
     41  O        -58.1220   53.6080  -39.7340 O.2    83  PRO83      -0.2715
     42  CB       -59.9610   52.9930  -37.1460 C.3    83  PRO83       0.0310
     43  CG       -60.2600   52.0960  -36.0110 C.3    83  PRO83       0.0237
     44  CD       -58.8820   51.7070  -35.5370 C.3    83  PRO83       0.0939
     45  N        -56.8650   53.6680  -37.8700 N.am   84  MET84      -0.1978
     46  CA       -55.9210   54.6320  -38.4170 C.3    84  MET84       0.1605
     47  C        -54.4700   54.1600  -38.3950 C.2    84  MET84       0.2287
     48  O        -54.0510   53.4340  -37.4910 O.2    84  MET84      -0.2864
     49  CB       -56.0500   55.9430  -37.6450 C.3    84  MET84       0.0413
     50  CG       -55.0600   56.9960  -38.0520 C.3    84  MET84       0.0598
     51  SD       -55.2620   58.5010  -37.0920 S.3    84  MET84      -0.1393
     52  CE       -55.3680   59.7350  -38.4080 C.3    84  MET84       0.0692
     53  N        -50.5290   55.1680  -38.1110 N.3    86  MET86      -0.1245
     54  CA       -49.6330   56.2080  -37.6110 C.3    86  MET86       0.1570
     55  C        -48.3210   56.3390  -38.3700 C.2    86  MET86       0.2261
     56  O        -47.6950   55.3440  -38.7270 O.2    86  MET86      -0.2867
     57  CB       -49.3500   55.9650  -36.1300 C.3    86  MET86       0.0387
     58  CG       -50.5770   56.1600  -35.2560 C.3    86  MET86       0.0595
     59  SD       -51.2280   57.8740  -35.2890 S.3    86  MET86      -0.1393
     60  CE       -52.2170   57.8580  -36.7610 C.3    86  MET86       0.0692
     61  N        -48.7010   66.2270  -36.3540 N.3    95  PHE95      -0.1241
     62  CA       -49.8740   65.6220  -35.7360 C.3    95  PHE95       0.1605
     63  C        -49.7290   65.5820  -34.2160 C.2    95  PHE95       0.2264
     64  O        -50.5370   66.1510  -33.4810 O.2    95  PHE95      -0.2867
     65  CB       -50.0370   64.2000  -36.2830 C.3    95  PHE95       0.0534
     66  CG       -51.0810   63.3840  -35.5790 C.ar   95  PHE95      -0.0203
     67  CD1      -52.4300   63.6280  -35.7830 C.ar   95  PHE95      -0.0042
     68  CD2      -50.7080   62.3650  -34.7090 C.ar   95  PHE95      -0.0042
     69  CE1      -53.3950   62.8620  -35.1290 C.ar   95  PHE95      -0.0003
     70  CE2      -51.6630   61.5980  -34.0520 C.ar   95  PHE95      -0.0003
     71  CZ       -53.0080   61.8450  -34.2620 C.ar   95  PHE95      -0.0000
     72  N        -59.0680   59.0340  -36.9970 N.3   228  PHE228     -0.1241
     73  CA       -58.5540   59.2480  -35.6590 C.3   228  PHE228      0.1605
     74  C        -59.6480   59.0270  -34.6190 C.2   228  PHE228      0.2264
     75  O        -59.4700   58.2590  -33.6630 O.2   228  PHE228     -0.2867
     76  CB       -58.0060   60.6660  -35.5170 C.3   228  PHE228      0.0534
     77  CG       -57.5350   60.9920  -34.1250 C.ar  228  PHE228     -0.0203
     78  CD1      -56.4760   60.2900  -33.5510 C.ar  228  PHE228     -0.0042
     79  CD2      -58.1520   61.9880  -33.3830 C.ar  228  PHE228     -0.0042
     80  CE1      -56.0360   60.5720  -32.2550 C.ar  228  PHE228     -0.0003
     81  CE2      -57.7190   62.2790  -32.0850 C.ar  228  PHE228     -0.0003
     82  CZ       -56.6580   61.5700  -31.5180 C.ar  228  PHE228     -0.0000
     83  N        -60.5970   55.5560  -34.2130 N.3   231  THR231     -0.1203
     84  CA       -59.5470   54.8020  -33.5450 C.3   231  THR231      0.1994
     85  C        -59.6810   55.0550  -32.0440 C.2   231  THR231      0.2617
     86  O        -59.4130   54.1740  -31.2320 O.2   231  THR231     -0.2717
     87  CB       -58.1530   55.2310  -34.0160 C.3   231  THR231      0.1784
     88  OG1      -58.0660   55.0720  -35.4380 O.3   231  THR231     -0.2211
     89  CG2      -57.0840   54.3750  -33.3410 C.3   231  THR231      0.0376
     90  N        -60.1110   56.2590  -31.6800 N.am  232  MET232     -0.1979
     91  CA       -60.3000   56.5910  -30.2770 C.3   232  MET232      0.1605
     92  C        -61.5360   55.8850  -29.7450 C.2   232  MET232      0.2287
     93  O        -61.4800   55.2170  -28.7090 O.2   232  MET232     -0.2864
     94  CB       -60.4350   58.1000  -30.1050 C.3   232  MET232      0.0413
     95  CG       -59.1810   58.8190  -30.5150 C.3   232  MET232      0.0598
     96  SD       -57.7190   58.0710  -29.7400 S.3   232  MET232     -0.1393
     97  CE       -57.2920   59.3750  -28.6420 C.3   232  MET232      0.0692
     98  N        -63.0230   53.2160  -30.7970 N.3   234  THR234     -0.1203
     99  CA       -62.8190   51.7850  -30.6430 C.3   234  THR234      0.1994
    100  C        -61.7750   51.5010  -29.5700 C.2   234  THR234      0.2618
    101  O        -62.1110   51.0840  -28.4640 O.2   234  THR234     -0.2717
    102  CB       -62.3640   51.0920  -31.9640 C.3   234  THR234      0.1784
    103  OG1      -61.0900   51.6070  -32.3830 O.3   234  THR234     -0.2211
    104  CG2      -63.3890   51.3040  -33.0580 C.3   234  THR234      0.0376
    105  N        -60.5110   51.7480  -29.9020 N.am  235  GLY235     -0.1942
    106  CA       -59.4160   51.4860  -28.9810 C.3   235  GLY235      0.2014
    107  C        -59.3350   52.2690  -27.6800 C.2   235  GLY235      0.2639
    108  O        -59.0190   51.6960  -26.6330 O.2   235  GLY235     -0.2714
    109  N        -59.5990   53.5720  -27.7360 N.am  236  GLY236     -0.1954
    110  CA       -59.5290   54.3870  -26.5350 C.3   236  GLY236      0.1869
    111  C        -60.5150   53.9300  -25.4830 C.2   236  GLY236      0.2309
    112  O        -60.3180   54.1380  -24.2820 O.2   236  GLY236     -0.2863
    113  N        -59.4690   49.7490  -24.1750 N.3   239  THR239     -0.1218
    114  CA       -58.1320   49.4850  -23.6350 C.3   239  THR239      0.1862
    115  C        -58.2960   49.7660  -22.1500 C.2   239  THR239      0.2287
    116  O        -57.7300   49.0800  -21.2950 O.2   239  THR239     -0.2866
    117  CB       -57.0620   50.4450  -24.1750 C.3   239  THR239      0.1770
    118  OG1      -57.6090   51.7650  -24.2410 O.3   239  THR239     -0.2211
    119  CG2      -56.5700   50.0110  -25.5390 C.3   239  THR239      0.0375
    120  N        -52.9200   46.7350  -24.1560 N.3   282  VAL282     -0.1245
    121  CA       -52.4140   46.5590  -25.5110 C.3   282  VAL282      0.1561
    122  C        -51.2680   45.5920  -25.3450 C.2   282  VAL282      0.2260
    123  O        -50.1320   45.9970  -25.1400 O.2   282  VAL282     -0.2867
    124  CB       -51.8750   47.8510  -26.1230 C.3   282  VAL282      0.0252
    125  CG1      -51.2720   47.5470  -27.4890 C.3   282  VAL282      0.0019
    126  CG2      -52.9950   48.8660  -26.2550 C.3   282  VAL282      0.0019
    127  N        -48.1700   45.1710  -30.3730 N.3   285  LEU285     -0.1245
    128  CA       -48.3800   45.8430  -31.6430 C.3   285  LEU285      0.1561
    129  C        -47.1490   45.5300  -32.4680 C.2   285  LEU285      0.2260
    130  O        -46.0680   45.2620  -31.9240 O.2   285  LEU285     -0.2867
    131  CB       -48.5490   47.3500  -31.4700 C.3   285  LEU285      0.0270
    132  CG       -49.8790   47.7640  -30.8380 C.3   285  LEU285      0.0019
    133  CD1      -50.0850   49.2590  -31.0090 C.3   285  LEU285      0.0001
    134  CD2      -51.0190   47.0090  -31.5100 C.3   285  LEU285      0.0001
    135  N        -48.4010   56.7660  -25.6930 N.3   346  CYS346     -0.1235
    136  CA       -49.7990   57.1390  -25.5130 C.3   346  CYS346      0.1677
    137  C        -50.1080   58.5220  -24.9510 C.2   346  CYS346      0.2270
    138  O        -49.6300   58.8960  -23.8790 O.2   346  CYS346     -0.2867
    139  CB       -50.4980   56.0910  -24.6540 C.3   346  CYS346      0.0956
    140  SG       -52.1350   56.6160  -24.1160 S.3   346  CYS346     -0.0801
    141  N        -54.6680   41.6420  -30.3990 N.3   384  TYR384     -0.1227
    142  CA       -53.8410   42.7300  -29.8980 C.3   384  TYR384      0.1736
    143  C        -54.2630   43.3920  -28.5910 C.2   384  TYR384      0.2595
    144  O        -53.4140   43.6880  -27.7480 O.2   384  TYR384     -0.2718
    145  CB       -53.6840   43.7610  -31.0140 C.3   384  TYR384      0.0548
    146  CG       -53.1410   43.1180  -32.2720 C.ar  384  TYR384     -0.0200
    147  CD1      -51.8370   42.6290  -32.3180 C.ar  384  TYR384     -0.0009
    148  CD2      -53.9660   42.8840  -33.3690 C.ar  384  TYR384     -0.0009
    149  CE1      -51.3710   41.9090  -33.4200 C.ar  384  TYR384      0.0417
    150  CE2      -53.5140   42.1670  -34.4730 C.ar  384  TYR384      0.0417
    151  CZ       -52.2150   41.6760  -34.4950 C.ar  384  TYR384      0.1957
    152  OH       -51.7740   40.9360  -35.5810 O.3   384  TYR384     -0.2866
    153  N        -55.5570   43.6260  -28.4070 N.am  385  VAL385     -0.1980
    154  CA       -56.0310   44.2420  -27.1690 C.3   385  VAL385      0.1595
    155  C        -56.7660   43.2150  -26.3070 C.2   385  VAL385      0.2287
    156  O        -57.7870   42.6550  -26.7280 O.2   385  VAL385     -0.2864
    157  CB       -56.9760   45.4030  -27.4570 C.3   385  VAL385      0.0276
    158  CG1      -57.3410   46.1010  -26.1630 C.3   385  VAL385      0.0022
    159  CG2      -56.3300   46.3590  -28.4310 C.3   385  VAL385      0.0022
@<TRIPOS>BOND
     1    41    40    2
     2    29    28    1
     3    30    28    1
     4    56    55    2
     5    40    39    1
     6    40    45   am
     7    28    25    1
     8    12    11    2
     9    14    13    1
    10    46    47    1
    11    46    45    1
    12    46    49    1
    13    52    51    1
    14    47    48    2
    15    55    54    1
    16    34    33    2
    17    53    54    1
    18    50    49    1
    19    50    51    1
    20    39    42    1
    21    39    38    1
    22     1     2    1
    23    11    10    1
    24    54    57    1
    25    16    17    1
    26    42    43    1
    27    13    10    1
    28    13    15    1
    29    33    38   am
    30    33    32    1
    31    25    24    1
    32    25    26    1
    33    72    73    1
    34     9    10    1
    35     9     3   am
    36    38    44    1
    37    60    59    1
    38    24    18   am
    39    26    27    2
    40    26    31   am
    41    19    18    2
    42    18    17    1
    43     2     3    1
    44     2     5    1
    45    61    62    1
    46    31    37    1
    47    31    32    1
    48    65    62    1
    49    65    66    1
    50    17    20    1
    51    57    58    1
    52    37    36    1
    53    43    44    1
    54     3     4    2
    55    32    35    1
    56    67    66   ar
    57    67    69   ar
    58    20    21    1
    59    62    63    1
    60    73    76    1
    61    73    74    1
    62   152   151    1
    63    66    68   ar
    64     6     5    1
    65     6     8    1
    66     6     7    1
    67    76    77    1
    68    35    36    1
    69    88    87    1
    70    59    58    1
    71    69    71   ar
    72    68    70   ar
    73    74    75    2
    74   151   150   ar
    75   151   149   ar
    76   150   148   ar
    77    21    23   ar
    78    21    22   ar
    79    71    70   ar
    80    63    64    2
    81    83    84    1
    82    77    78   ar
    83    77    79   ar
    84    87    84    1
    85    87    89    1
    86    78    80   ar
    87    84    85    1
    88   149   147   ar
    89    79    81   ar
    90   148   146   ar
    91   104   102    1
    92   129   130    2
    93   129   128    1
    94   103   102    1
    95   147   146   ar
    96   146   145    1
    97    80    82   ar
    98    81    82   ar
    99    85    90   am
   100    85    86    2
   101   102    99    1
   102    90    91    1
   103   128   131    1
   104   128   127    1
   105   134   132    1
   106   131   132    1
   107   145   142    1
   108   133   132    1
   109    98    99    1
   110    99   100    1
   111    95    94    1
   112    95    96    1
   113   141   142    1
   114    91    94    1
   115    91    92    1
   116   105   100   am
   117   105   106    1
   118   142   143    1
   119    92    93    2
   120    96    97    1
   121   100   101    2
   122   106   107    1
   123   143   153   am
   124   143   144    2
   125   159   157    1
   126   153   154    1
   127   109   107   am
   128   109   110    1
   129   107   108    2
   130   125   124    1
   131   157   154    1
   132   157   158    1
   133   154   155    1
   134   156   155    2
   135   110   111    1
   136   126   124    1
   137   124   121    1
   138   135   136    1
   139   119   117    1
   140   136   137    1
   141   136   139    1
   142   121   122    1
   143   121   120    1
   144   111   112    2
   145   122   123    2
   146   137   138    2
   147   139   140    1
   148   118   117    1
   149   113   114    1
   150   117   114    1
   151   114   115    1
   152   115   116    2
