@<TRIPOS>MOLECULE
tmp/2uvxA00.pdb
 95 89 0 0 0
SMALL
GASTEIGER

@<TRIPOS>ATOM
      1  N          8.6060   14.7880    8.0050 N.3    36  LEU36      -0.1245
      2  CA         8.4400   13.3630    8.2460 C.3    36  LEU36       0.1561
      3  C          9.6650   12.5550    7.8310 C.2    36  LEU36       0.2260
      4  O          9.8070   11.4100    8.2300 O.2    36  LEU36      -0.2867
      5  CB         7.2620   12.8410    7.4260 C.3    36  LEU36       0.0270
      6  CG         5.9040   13.4880    7.6490 C.3    36  LEU36       0.0019
      7  CD1        4.9400   12.8980    6.6140 C.3    36  LEU36       0.0001
      8  CD2        5.4710   13.1970    9.0620 C.3    36  LEU36       0.0001
      9  N         10.3310   15.1800    2.9650 N.3    44  VAL44      -0.1245
     10  CA         8.8970   14.9380    2.9200 C.3    44  VAL44       0.1561
     11  C          8.3330   15.5960    4.1670 C.2    44  VAL44       0.2260
     12  O          8.8850   15.4160    5.2580 O.2    44  VAL44      -0.2867
     13  CB         8.5350   13.4220    2.9090 C.3    44  VAL44       0.0252
     14  CG1        7.0070   13.2250    2.8760 C.3    44  VAL44       0.0019
     15  CG2        9.1440   12.7370    1.6910 C.3    44  VAL44       0.0019
     16  N          1.1160   14.0840    2.5090 N.3    57  ALA57      -0.1245
     17  CA         2.5750   14.1340    2.4810 C.3    57  ALA57       0.1562
     18  C          3.0390   14.9110    1.2590 C.2    57  ALA57       0.2260
     19  O          2.6400   14.6150    0.1300 O.2    57  ALA57      -0.2867
     20  CB         3.1560   12.7330    2.4540 C.3    57  ALA57       0.0290
     21  N          0.8790    5.6730   -3.4570 N.3    91  THR91      -0.1218
     22  CA         0.2740    7.0000   -3.2310 C.3    91  THR91       0.1862
     23  C          0.5160    7.8400   -4.4640 C.2    91  THR91       0.2287
     24  O          1.5750    8.4400   -4.6060 O.2    91  THR91      -0.2866
     25  CB         0.8560    7.7230   -1.9950 C.3    91  THR91       0.1770
     26  OG1        2.2460    8.0410   -2.2200 O.3    91  THR91      -0.2211
     27  CG2        0.7260    6.8630   -0.7810 C.3    91  THR91       0.0375
     28  N          0.9480   13.9190   -1.9720 N.3   107  MET107     -0.1230
     29  CA         0.4790   12.5480   -1.9910 C.3   107  MET107      0.1702
     30  C         -0.2970   12.2290   -0.7440 C.2   107  MET107      0.2592
     31  O         -0.1420   12.8960    0.2660 O.2   107  MET107     -0.2718
     32  CB         1.7100   11.6050   -2.0190 C.3   107  MET107      0.0401
     33  CG         2.5650   11.7660   -3.2690 C.3   107  MET107      0.0596
     34  SD         4.1580   11.0030   -3.0770 S.3   107  MET107     -0.1393
     35  CE         4.8680   12.1380   -1.9030 C.3   107  MET107      0.0692
     36  N         -1.0740   11.1560   -0.7920 N.am  108  GLU108     -0.1966
     37  CA        -1.8040   10.6640    0.3790 C.3   108  GLU108      0.1733
     38  C         -0.8890   10.4430    1.5750 C.2   108  GLU108      0.2616
     39  O          0.1530    9.8140    1.4410 O.2   108  GLU108     -0.2715
     40  CB        -2.4870    9.3410    0.0400 C.3   108  GLU108      0.0429
     41  CG        -3.2870    8.7410    1.1860 C.3   108  GLU108      0.1163
     42  CD        -3.9220    7.4080    0.8390 C.2   108  GLU108      0.3649
     43  OE1       -3.9210    7.0200   -0.3470 O.co2 108  GLU108     -0.2457
     44  OE2       -4.3920    6.7270    1.7740 O.co2 108  GLU108     -0.2457
     45  N         -1.2780   10.9690    2.7390 N.am  109  TYR109     -0.1960
     46  CA        -0.4960   10.8040    3.9760 C.3   109  TYR109      0.1771
     47  C         -0.8010    9.4570    4.6270 C.2   109  TYR109      0.2619
     48  O         -1.9710    9.1180    4.8470 O.2   109  TYR109     -0.2715
     49  CB        -0.7910   11.9460    4.9440 C.3   109  TYR109      0.0574
     50  CG        -0.2050   11.8130    6.3290 C.ar  109  TYR109     -0.0198
     51  CD1        1.1430   11.5480    6.5100 C.ar  109  TYR109     -0.0009
     52  CD2       -1.0040   11.9930    7.4670 C.ar  109  TYR109     -0.0009
     53  CE1        1.7000   11.4420    7.7660 C.ar  109  TYR109      0.0417
     54  CE2       -0.4580   11.8840    8.7400 C.ar  109  TYR109      0.0417
     55  CZ         0.9030   11.6100    8.8830 C.ar  109  TYR109      0.1957
     56  OH         1.4750   11.4720   10.1290 O.3   109  TYR109     -0.2866
     57  N          0.2580    8.7020    4.9550 N.am  110  ALA110     -0.1977
     58  CA         0.1270    7.4550    5.7030 C.3   110  ALA110      0.1597
     59  C          0.6030    7.6860    7.1460 C.2   110  ALA110      0.2287
     60  O          1.8260    7.8290    7.4060 O.2   110  ALA110     -0.2864
     61  CB         0.9080    6.3320    5.0260 C.3   110  ALA110      0.0319
     62  N          5.4000    2.8780    4.0920 N.3   160  MET160     -0.1245
     63  CA         4.6070    3.5800    5.0880 C.3   160  MET160      0.1570
     64  C          3.3530    2.7690    5.4340 C.2   160  MET160      0.2261
     65  O          2.7330    2.1720    4.5520 O.2   160  MET160     -0.2867
     66  CB         4.1880    4.9580    4.5690 C.3   160  MET160      0.0387
     67  CG         5.3280    5.8130    4.0890 C.3   160  MET160      0.0595
     68  SD         6.5210    6.0660    5.4170 S.3   160  MET160     -0.1393
     69  CE         7.8760    6.7490    4.4570 C.3   160  MET160      0.0692
     70  N          6.4570    3.9330   -1.0980 N.3   170  THR170     -0.1203
     71  CA         6.7380    5.3570   -1.4040 C.3   170  THR170      0.1994
     72  C          8.1740    5.5990   -1.9040 C.2   170  THR170      0.2617
     73  O          9.0170    4.7210   -1.8800 O.2   170  THR170     -0.2717
     74  CB         6.4430    6.2680   -0.1540 C.3   170  THR170      0.1784
     75  OG1        7.4120    6.0360    0.8830 O.3   170  THR170     -0.2211
     76  CG2        5.0810    5.9560    0.4150 C.3   170  THR170      0.0376
     77  N          8.4230    6.8170   -2.3450 N.am  171  ASP171     -0.1973
     78  CA         9.7040    7.2250   -2.8710 C.3   171  ASP171      0.1709
     79  C         10.0360    6.5480   -4.1880 C.2   171  ASP171      0.2293
     80  O         10.6710    5.4750   -4.2070 O.2   171  ASP171     -0.2864
     81  CB        10.8420    7.0000   -1.8690 C.3   171  ASP171      0.1436
     82  CG        12.0760    7.8020   -2.2320 C.2   171  ASP171      0.3671
     83  OD1       12.1620    8.2400   -3.3980 O.co2 171  ASP171     -0.2456
     84  OD2       12.9160    8.0230   -1.3420 O.co2 171  ASP171     -0.2456
     85  N          6.1950    8.9810   13.6610 N.3   313  PHE313     -0.1241
     86  CA         7.3530    9.4210   12.9150 C.3   313  PHE313      0.1605
     87  C          8.3910   10.0120   13.8630 C.2   313  PHE313      0.2264
     88  O          8.0390   10.5600   14.9050 O.2   313  PHE313     -0.2867
     89  CB         6.9520   10.4370   11.8570 C.3   313  PHE313      0.0534
     90  CG         6.1930    9.8370   10.7150 C.ar  313  PHE313     -0.0203
     91  CD1        6.8650    9.3340    9.6130 C.ar  313  PHE313     -0.0042
     92  CD2        4.7940    9.7400   10.7590 C.ar  313  PHE313     -0.0042
     93  CE1        6.1830    8.7650    8.5780 C.ar  313  PHE313     -0.0003
     94  CE2        4.0870    9.1470    9.7110 C.ar  313  PHE313     -0.0003
     95  CZ         4.7630    8.6730    8.6180 C.ar  313  PHE313     -0.0000
@<TRIPOS>BOND
     1    24    23    2
     2    23    22    1
     3    80    79    2
     4    79    78    1
     5    21    22    1
     6    83    82   ar
     7    33    34    1
     8    33    32    1
     9    22    25    1
    10    34    35    1
    11    78    77    1
    12    78    81    1
    13    77    72   am
    14    82    81    1
    15    82    84   ar
    16    26    25    1
    17    32    29    1
    18    25    27    1
    19    29    28    1
    20    29    30    1
    21    72    73    2
    22    72    71    1
    23    71    70    1
    24    71    74    1
    25    36    30   am
    26    36    37    1
    27    30    31    2
    28    43    42   ar
    29    74    76    1
    30    74    75    1
    31    40    37    1
    32    40    41    1
    33    19    18    2
    34    37    38    1
    35    42    41    1
    36    42    44   ar
    37    18    17    1
    38    39    38    2
    39    38    45   am
    40    15    13    1
    41    20    17    1
    42    17    16    1
    43    45    46    1
    44    14    13    1
    45    13    10    1
    46    10     9    1
    47    10    11    1
    48    46    47    1
    49    46    49    1
    50    67    66    1
    51    67    68    1
    52    62    63    1
    53    11    12    2
    54    69    68    1
    55    65    64    2
    56    66    63    1
    57    47    48    2
    58    47    57   am
    59    49    50    1
    60    57    58    1
    61    61    58    1
    62    63    64    1
    63    58    59    1
    64    50    51   ar
    65    50    52   ar
    66    51    53   ar
    67     7     6    1
    68    59    60    2
    69     5     6    1
    70     5     2    1
    71    52    54   ar
    72     6     8    1
    73    53    55   ar
    74     3     4    2
    75     3     2    1
    76     1     2    1
    77    93    95   ar
    78    93    91   ar
    79    95    94   ar
    80    54    55   ar
    81    55    56    1
    82    91    90   ar
    83    94    92   ar
    84    90    92   ar
    85    90    89    1
    86    89    86    1
    87    86    85    1
    88    86    87    1
    89    87    88    2
