@<TRIPOS>MOLECULE
tmp/2uvyA00.pdb
 157 148 0 0 0
SMALL
GASTEIGER

@<TRIPOS>ATOM
      1  N          8.5190   14.9650    7.9700 N.3    35  LEU35      -0.1231
      2  CA         8.3800   13.5190    8.1990 C.3    35  LEU35       0.1693
      3  C          9.6380   12.7360    7.8220 C.2    35  LEU35       0.2592
      4  O          9.8400   11.6090    8.2780 O.2    35  LEU35      -0.2718
      5  CB         7.2000   12.9690    7.3930 C.3    35  LEU35       0.0284
      6  CG         5.8160   13.5490    7.6880 C.3    35  LEU35       0.0019
      7  CD1        4.8000   13.0230    6.6870 C.3    35  LEU35       0.0001
      8  CD2        5.3810   13.2290    9.1110 C.3    35  LEU35       0.0001
      9  N         10.4620   13.3270    6.9660 N.am   36  GLY36      -0.1957
     10  CA        11.7260   12.7250    6.5760 C.3    36  GLY36       0.1869
     11  C         12.5490   13.6860    5.7490 C.2    36  GLY36       0.2309
     12  O         12.0220   14.6460    5.1810 O.2    36  GLY36      -0.2863
     13  N         17.2580   12.4650   -0.8200 N.3    40  PHE40      -0.1241
     14  CA        15.9870   12.4200   -1.5530 C.3    40  PHE40       0.1605
     15  C         15.2020   13.7380   -1.5200 C.2    40  PHE40       0.2264
     16  O         14.1950   13.8620   -2.2110 O.2    40  PHE40      -0.2867
     17  CB        15.0870   11.2670   -1.0560 C.3    40  PHE40       0.0534
     18  CG        14.7290   11.3300    0.4160 C.ar   40  PHE40      -0.0203
     19  CD1       13.6470   12.0890    0.8620 C.ar   40  PHE40      -0.0042
     20  CD2       15.4500   10.5920    1.3500 C.ar   40  PHE40      -0.0042
     21  CE1       13.3120   12.1300    2.2190 C.ar   40  PHE40      -0.0003
     22  CE2       15.1230   10.6280    2.7040 C.ar   40  PHE40      -0.0003
     23  CZ        14.0530   11.3960    3.1390 C.ar   40  PHE40      -0.0000
     24  N         10.2360   15.3690    2.9560 N.3    43  VAL43      -0.1245
     25  CA         8.7990   15.1030    2.9050 C.3    43  VAL43       0.1561
     26  C          8.1550   15.6990    4.1590 C.2    43  VAL43       0.2260
     27  O          8.5690   15.3890    5.2780 O.2    43  VAL43      -0.2867
     28  CB         8.4990   13.5920    2.8090 C.3    43  VAL43       0.0252
     29  CG1        6.9940   13.3430    2.7440 C.3    43  VAL43       0.0019
     30  CG2        9.1990   12.9840    1.5900 C.3    43  VAL43       0.0019
     31  N          1.0920   14.3810    2.3050 N.3    56  ALA56      -0.1245
     32  CA         2.5500   14.3910    2.4160 C.3    56  ALA56       0.1562
     33  C          3.1120   15.1140    1.2010 C.2    56  ALA56       0.2260
     34  O          2.8480   14.7210    0.0630 O.2    56  ALA56      -0.2867
     35  CB         3.0940   12.9800    2.4840 C.3    56  ALA56       0.0290
     36  N          1.6880    5.4370   -3.4340 N.3    90  THR90      -0.1218
     37  CA         1.2870    6.8390   -3.2610 C.3    90  THR90       0.1862
     38  C          1.3450    7.5960   -4.5930 C.2    90  THR90       0.2287
     39  O          2.4000    8.1130   -4.9580 O.2    90  THR90      -0.2866
     40  CB         2.2000    7.5790   -2.2450 C.3    90  THR90       0.1770
     41  OG1        3.5330    7.6810   -2.7660 O.3    90  THR90      -0.2211
     42  CG2        2.2300    6.8510   -0.9110 C.3    90  THR90       0.0375
     43  N          1.1010   13.9670   -2.1140 N.3   106  MET106     -0.1230
     44  CA         0.6320   12.5820   -2.0680 C.3   106  MET106      0.1702
     45  C         -0.2300   12.3290   -0.8340 C.2   106  MET106      0.2592
     46  O         -0.1950   13.0980    0.1300 O.2   106  MET106     -0.2718
     47  CB         1.8340   11.6330   -1.9810 C.3   106  MET106      0.0401
     48  CG         2.7320   11.5830   -3.2090 C.3   106  MET106      0.0596
     49  SD         4.3830   10.9630   -2.8220 S.3   106  MET106     -0.1393
     50  CE         5.1100   12.4020   -2.0400 C.3   106  MET106      0.0692
     51  N         -0.9810   11.2300   -0.8620 N.am  107  GLU107     -0.1966
     52  CA        -1.7110   10.7530    0.3170 C.3   107  GLU107      0.1733
     53  C         -0.7770   10.5680    1.5150 C.2   107  GLU107      0.2616
     54  O          0.3230   10.0230    1.3870 O.2   107  GLU107     -0.2715
     55  CB        -2.4300    9.4350    0.0140 C.3   107  GLU107      0.0429
     56  CG        -3.2350    8.8670    1.1900 C.3   107  GLU107      0.1163
     57  CD        -4.0690    7.6520    0.8120 C.2   107  GLU107      0.3649
     58  OE1       -4.2350    7.3830   -0.3980 O.co2 107  GLU107     -0.2457
     59  OE2       -4.5600    6.9620    1.7310 O.co2 107  GLU107     -0.2457
     60  N         -1.2330   11.0400    2.6720 N.am  108  TYR108     -0.1960
     61  CA        -0.4980   10.9130    3.9230 C.3   108  TYR108      0.1771
     62  C         -0.8600    9.6150    4.6360 C.2   108  TYR108      0.2619
     63  O         -2.0330    9.3470    4.9070 O.2   108  TYR108     -0.2715
     64  CB        -0.8020   12.1100    4.8230 C.3   108  TYR108      0.0574
     65  CG        -0.2740   11.9900    6.2330 C.ar  108  TYR108     -0.0198
     66  CD1        1.0790   11.7810    6.4710 C.ar  108  TYR108     -0.0009
     67  CD2       -1.1260   12.1040    7.3320 C.ar  108  TYR108     -0.0009
     68  CE1        1.5750   11.6780    7.7590 C.ar  108  TYR108      0.0417
     69  CE2       -0.6390   12.0020    8.6290 C.ar  108  TYR108      0.0417
     70  CZ         0.7150   11.7910    8.8350 C.ar  108  TYR108      0.1957
     71  OH         1.2140   11.6870   10.1130 O.3   108  TYR108     -0.2866
     72  N          0.1630    8.8150    4.9230 N.am  109  ALA109     -0.1977
     73  CA         0.0200    7.5810    5.6880 C.3   109  ALA109      0.1597
     74  C          0.4690    7.8490    7.1250 C.2   109  ALA109      0.2287
     75  O          1.6620    8.0110    7.3790 O.2   109  ALA109     -0.2864
     76  CB         0.8560    6.4790    5.0670 C.3   109  ALA109      0.0319
     77  N          6.8330    4.8320    9.2000 N.3   113  GLU113     -0.1245
     78  CA         7.6020    3.9330    8.3420 C.3   113  GLU113      0.1567
     79  C          7.5820    2.5240    8.9010 C.2   113  GLU113      0.2260
     80  O          7.6300    2.3390   10.1160 O.2   113  GLU113     -0.2867
     81  CB         9.0580    4.3800    8.2600 C.3   113  GLU113      0.0388
     82  CG         9.2510    5.7640    7.6920 C.3   113  GLU113      0.1160
     83  CD        10.6990    6.1840    7.6780 C.2   113  GLU113      0.3649
     84  OE1       11.5440    5.4100    8.1770 O.co2 113  GLU113     -0.2457
     85  OE2       10.9960    7.2870    7.1710 O.co2 113  GLU113     -0.2457
     86  N         12.8720   -0.9550    0.3770 N.3   153  LYS153     -0.1245
     87  CA        13.3910   -1.0800    1.7470 C.3   153  LYS153      0.1561
     88  C         12.3150   -0.5990    2.7340 C.2   153  LYS153      0.2260
     89  O         11.4210    0.1560    2.3470 O.2   153  LYS153     -0.2867
     90  CB        14.6980   -0.2860    1.9410 C.3   153  LYS153      0.0271
     91  CG        14.6270    1.1720    1.4840 C.3   153  LYS153      0.0035
     92  CD        15.9170    1.9540    1.7510 C.3   153  LYS153      0.0206
     93  CE        15.8600    3.3660    1.1410 C.3   153  LYS153      0.1093
     94  NZ        17.2100    3.9900    1.0060 N.3   153  LYS153     -0.1314
     95  N         12.3870    1.6060    4.9520 N.3   155  GLU155     -0.1231
     96  CA        12.4350    3.0610    5.0400 C.3   155  GLU155      0.1699
     97  C         11.4800    3.7350    4.0510 C.2   155  GLU155      0.2592
     98  O         11.0800    4.8810    4.2590 O.2   155  GLU155     -0.2718
     99  CB        13.8620    3.5560    4.7770 C.3   155  GLU155      0.0402
    100  CG        14.8730    3.2460    5.8840 C.3   155  GLU155      0.1161
    101  CD        15.6420    1.9600    5.6620 C.2   155  GLU155      0.3649
    102  OE1       15.0350    0.9650    5.2120 O.co2 155  GLU155     -0.2457
    103  OE2       16.8540    1.9460    5.9540 O.co2 155  GLU155     -0.2457
    104  N         11.1270    3.0230    2.9790 N.am  156  ASN156     -0.1974
    105  CA        10.2580    3.5560    1.9260 C.3   156  ASN156      0.1688
    106  C          8.8300    3.0050    1.9690 C.2   156  ASN156      0.2292
    107  O          8.0240    3.3080    1.0880 O.2   156  ASN156     -0.2864
    108  CB        10.8700    3.2630    0.5490 C.3   156  ASN156      0.1181
    109  CG        12.1090    4.0950    0.2580 C.2   156  ASN156      0.2629
    110  OD1       12.4250    5.0460    0.9730 O.2   156  ASN156     -0.2716
    111  ND2       12.8130    3.7390   -0.8110 N.am  156  ASN156     -0.0877
    112  N          5.4010    3.0050    3.9930 N.3   158  MET158     -0.1245
    113  CA         4.6210    3.7070    5.0130 C.3   158  MET158      0.1570
    114  C          3.4030    2.8820    5.3800 C.2   158  MET158      0.2261
    115  O          2.7730    2.2850    4.5100 O.2   158  MET158     -0.2867
    116  CB         4.1740    5.0800    4.5040 C.3   158  MET158      0.0387
    117  CG         5.3040    5.9290    3.9730 C.3   158  MET158      0.0595
    118  SD         6.5450    6.2080    5.2430 S.3   158  MET158     -0.1393
    119  CE         8.0210    6.3090    4.2120 C.3   158  MET158      0.0692
    120  N          6.5230    4.3170   -1.3020 N.3   168  THR168     -0.1203
    121  CA         6.7890    5.6860   -1.7140 C.3   168  THR168      0.1994
    122  C          8.2740    5.8960   -1.9910 C.2   168  THR168      0.2617
    123  O          9.0920    4.9940   -1.8150 O.2   168  THR168     -0.2717
    124  CB         6.2620    6.7050   -0.6770 C.3   168  THR168      0.1784
    125  OG1        6.1870    8.0070   -1.2770 O.3   168  THR168     -0.2211
    126  CG2        7.1570    6.7510    0.5540 C.3   168  THR168      0.0376
    127  N          8.5920    7.1090   -2.4260 N.am  169  ASP169     -0.1973
    128  CA         9.9040    7.4770   -2.9560 C.3   169  ASP169      0.1709
    129  C         10.2200    6.7120   -4.2380 C.2   169  ASP169      0.2293
    130  O         10.8000    5.6250   -4.2040 O.2   169  ASP169     -0.2864
    131  CB        11.0330    7.3050   -1.9350 C.3   169  ASP169      0.1436
    132  CG        12.2710    8.1130   -2.3070 C.2   169  ASP169      0.3671
    133  OD1       13.0590    8.4570   -1.4000 O.co2 169  ASP169     -0.2456
    134  OD2       12.4490    8.4280   -3.5070 O.co2 169  ASP169     -0.2456
    135  N          6.1270    9.0490   13.6870 N.3   311  PHE311     -0.1241
    136  CA         7.3080    9.4800   12.9450 C.3   311  PHE311      0.1605
    137  C          8.3280   10.0690   13.8980 C.2   311  PHE311      0.2264
    138  O          7.9760   10.5860   14.9610 O.2   311  PHE311     -0.2867
    139  CB         6.9330   10.5300   11.8990 C.3   311  PHE311      0.0534
    140  CG         6.0880    9.9930   10.7850 C.ar  311  PHE311     -0.0203
    141  CD1        6.6780    9.4820    9.6360 C.ar  311  PHE311     -0.0042
    142  CD2        4.7050    9.9800   10.8890 C.ar  311  PHE311     -0.0042
    143  CE1        5.9030    8.9740    8.6040 C.ar  311  PHE311     -0.0003
    144  CE2        3.9230    9.4730    9.8600 C.ar  311  PHE311     -0.0003
    145  CZ         4.5270    8.9710    8.7140 C.ar  311  PHE311     -0.0000
    146  N         12.5500   15.5930   13.1200 N.3   314  TYR314     -0.1241
    147  CA        13.6300   16.0960   12.2870 C.3   314  TYR314      0.1605
    148  C         13.7050   17.6000   12.4660 C.2   314  TYR314      0.2264
    149  O         12.6870   18.2540   12.7000 O.2   314  TYR314     -0.2867
    150  CB        13.3700   15.7790   10.8140 C.3   314  TYR314      0.0534
    151  CG        13.4440   14.3100   10.4500 C.ar  314  TYR314     -0.0201
    152  CD1       12.3260   13.4900   10.5610 C.ar  314  TYR314     -0.0009
    153  CD2       14.6250   13.7480    9.9730 C.ar  314  TYR314     -0.0009
    154  CE1       12.3810   12.1450   10.2170 C.ar  314  TYR314      0.0417
    155  CE2       14.6910   12.4050    9.6250 C.ar  314  TYR314      0.0417
    156  CZ        13.5650   11.6090    9.7510 C.ar  314  TYR314      0.1957
    157  OH        13.6210   10.2770    9.4080 O.3   314  TYR314     -0.2866
@<TRIPOS>BOND
     1    39    38    2
     2    38    37    1
     3   129   130    2
     4   129   128    1
     5   134   132   ar
     6    36    37    1
     7    37    40    1
     8    48    49    1
     9    48    47    1
    10   128   127    1
    11   128   131    1
    12    49    50    1
    13    41    40    1
    14   127   122   am
    15   132   131    1
    16   132   133   ar
    17    40    42    1
    18    16    15    2
    19    43    44    1
    20    44    47    1
    21    44    45    1
    22   122   123    2
    23   122   121    1
    24   121   120    1
    25   121   124    1
    26    14    15    1
    27    14    17    1
    28    14    13    1
    29   125   124    1
    30    17    18    1
    31    51    45   am
    32    51    52    1
    33    45    46    2
    34   111   109   am
    35   124   126    1
    36    58    57   ar
    37    55    52    1
    38    55    56    1
    39    34    33    2
    40   109   108    1
    41   109   110    2
    42    52    53    1
    43    86    87    1
    44    18    19   ar
    45    18    20   ar
    46   108   105    1
    47    57    56    1
    48    57    59   ar
    49    19    21   ar
    50    94    93    1
    51   107   106    2
    52    93    92    1
    53    33    32    1
    54    20    22   ar
    55    54    53    2
    56    91    92    1
    57    91    90    1
    58    53    60   am
    59    30    28    1
    60    87    90    1
    61    87    88    1
    62   105   106    1
    63   105   104    1
    64    21    23   ar
    65    31    32    1
    66    89    88    2
    67    32    35    1
    68    60    61    1
    69    22    23   ar
    70    29    28    1
    71    28    25    1
    72    25    24    1
    73    25    26    1
    74   104    97   am
    75    61    62    1
    76    61    64    1
    77   117   116    1
    78   117   118    1
    79   112   113    1
    80    97    98    2
    81    97    96    1
    82    26    27    2
    83   119   118    1
    84   116   113    1
    85   115   114    2
    86    62    63    2
    87    62    72   am
    88    99    96    1
    89    99   100    1
    90    64    65    1
    91    72    73    1
    92    95    96    1
    93   113   114    1
    94    76    73    1
    95    12    11    2
    96   102   101   ar
    97   101   100    1
    98   101   103   ar
    99    73    74    1
   100    11    10    1
   101    65    66   ar
   102    65    67   ar
   103    66    68   ar
   104    10     9    1
   105     7     6    1
   106     9     3   am
   107    74    75    2
   108    85    83   ar
   109    67    69   ar
   110     5     6    1
   111     5     2    1
   112    83    82    1
   113    83    84   ar
   114     6     8    1
   115    82    81    1
   116    68    70   ar
   117     3     2    1
   118     3     4    2
   119     1     2    1
   120    81    78    1
   121    78    79    1
   122    78    77    1
   123   143   145   ar
   124   143   141   ar
   125    69    70   ar
   126   145   144   ar
   127    70    71    1
   128    79    80    2
   129   157   156    1
   130   155   156   ar
   131   155   153   ar
   132   141   140   ar
   133   156   154   ar
   134   144   142   ar
   135   153   151   ar
   136   154   152   ar
   137   151   152   ar
   138   151   150    1
   139   140   142   ar
   140   140   139    1
   141   150   147    1
   142   139   136    1
   143   147   148    1
   144   147   146    1
   145   148   149    2
   146   136   135    1
   147   136   137    1
   148   137   138    2
