@<TRIPOS>MOLECULE
tmp/2uvzA00.pdb
 183 175 0 0 0
SMALL
GASTEIGER

@<TRIPOS>ATOM
      1  N          8.5930   15.0430    7.8770 N.3    36  LEU36      -0.1231
      2  CA         8.4310   13.6100    8.1160 C.3    36  LEU36       0.1693
      3  C          9.6840   12.8090    7.7620 C.2    36  LEU36       0.2593
      4  O          9.8460   11.6720    8.2040 O.2    36  LEU36      -0.2718
      5  CB         7.2520   13.0840    7.3020 C.3    36  LEU36       0.0284
      6  CG         5.8980   13.7410    7.5840 C.3    36  LEU36       0.0019
      7  CD1        4.8560   13.1280    6.6620 C.3    36  LEU36       0.0001
      8  CD2        5.5010   13.5940    9.0510 C.3    36  LEU36       0.0001
      9  N         10.5530   13.3990    6.9540 N.am   37  GLY37      -0.1942
     10  CA        11.8120   12.7760    6.5810 C.3    37  GLY37       0.2014
     11  C         12.6630   13.7560    5.8030 C.2    37  GLY37       0.2640
     12  O         12.1420   14.6680    5.1640 O.2    37  GLY37      -0.2714
     13  N         13.9760   13.5740    5.8640 N.am   38  THR38      -0.1936
     14  CA        14.8990   14.4870    5.2190 C.3    38  THR38       0.2028
     15  C         16.2420   13.8010    4.9580 C.2    38  THR38       0.2642
     16  O         16.6440   12.8990    5.6890 O.2    38  THR38      -0.2714
     17  CB        15.0980   15.7730    6.0600 C.3    38  THR38       0.1808
     18  OG1       15.8800   16.7180    5.3220 O.3    38  THR38      -0.2208
     19  CG2       15.7900   15.4590    7.3880 C.3    38  THR38       0.0379
     20  N         16.8980   14.2200    3.8840 N.am   39  GLY39      -0.1954
     21  CA        18.2060   13.6940    3.5110 C.3    39  GLY39       0.1869
     22  C         18.7050   14.4050    2.2690 C.2    39  GLY39       0.2309
     23  O         18.1120   15.3900    1.8290 O.2    39  GLY39      -0.2863
     24  N         18.5180   13.5320   -0.7370 N.3    41  PHE41      -0.1227
     25  CA        17.5460   13.4240   -1.8300 C.3    41  PHE41       0.1736
     26  C         16.2170   14.1370   -1.5350 C.2    41  PHE41       0.2596
     27  O         15.1660   13.7340   -2.0400 O.2    41  PHE41      -0.2718
     28  CB        17.3010   11.9460   -2.1700 C.3    41  PHE41       0.0547
     29  CG        18.3180   11.3680   -3.1190 C.ar   41  PHE41      -0.0202
     30  CD1       17.9800   11.0960   -4.4420 C.ar   41  PHE41      -0.0042
     31  CD2       19.6120   11.0970   -2.6920 C.ar   41  PHE41      -0.0042
     32  CE1       18.9110   10.5590   -5.3170 C.ar   41  PHE41      -0.0003
     33  CE2       20.5560   10.5650   -3.5700 C.ar   41  PHE41      -0.0003
     34  CZ        20.2060   10.2980   -4.8800 C.ar   41  PHE41      -0.0000
     35  N         16.2640   15.1950   -0.7280 N.am   42  GLY42      -0.1942
     36  CA        15.0940   16.0240   -0.4680 C.3    42  GLY42       0.2014
     37  C         14.4070   15.7190    0.8480 C.2    42  GLY42       0.2639
     38  O         14.9970   15.1360    1.7600 O.2    42  GLY42      -0.2714
     39  N         13.1460   16.1210    0.9550 N.am   43  ARG43      -0.1963
     40  CA        12.3990   15.9050    2.1850 C.3    43  ARG43       0.1729
     41  C         10.9200   15.6960    1.9060 C.2    43  ARG43       0.2616
     42  O         10.4290   16.0570    0.8360 O.2    43  ARG43      -0.2715
     43  CB        12.5930   17.0820    3.1360 C.3    43  ARG43       0.0348
     44  CG        12.3520   18.4130    2.4900 C.3    43  ARG43       0.0492
     45  CD        12.8030   19.5600    3.3680 C.3    43  ARG43       0.2205
     46  NE        12.9140   20.7760    2.5710 N.pl3  43  ARG43      -0.0865
     47  CZ        12.9550   22.0090    3.0640 C.cat  43  ARG43       0.5346
     48  NH1       12.8720   22.2330    4.3730 N.pl3  43  ARG43       0.1354
     49  NH2       13.0650   23.0250    2.2280 N.pl3  43  ARG43       0.1354
     50  N         10.2420   15.0850    2.8740 N.am   44  VAL44      -0.1977
     51  CA         8.7980   14.9060    2.8330 C.3    44  VAL44       0.1596
     52  C          8.2020   15.6070    4.0450 C.2    44  VAL44       0.2287
     53  O          8.6580   15.4110    5.1790 O.2    44  VAL44      -0.2864
     54  CB         8.4060   13.4190    2.8280 C.3    44  VAL44       0.0276
     55  CG1        6.8810   13.2650    2.8270 C.3    44  VAL44       0.0022
     56  CG2        9.0180   12.7140    1.6130 C.3    44  VAL44       0.0022
     57  N          1.0780   14.3750    2.2750 N.3    57  ALA57      -0.1245
     58  CA         2.5370   14.3480    2.3220 C.3    57  ALA57       0.1562
     59  C          3.0400   15.1250    1.1190 C.2    57  ALA57       0.2260
     60  O          2.6190   14.8650   -0.0120 O.2    57  ALA57      -0.2867
     61  CB         3.0540   12.9220    2.2890 C.3    57  ALA57       0.0290
     62  N          6.4510   16.0600   -0.8660 N.3    59  LYS59      -0.1245
     63  CA         7.8720   15.8860   -1.1300 C.3    59  LYS59       0.1561
     64  C          8.4170   17.1600   -1.7600 C.2    59  LYS59       0.2260
     65  O          7.8700   17.6630   -2.7350 O.2    59  LYS59      -0.2867
     66  CB         8.0930   14.7080   -2.0730 C.3    59  LYS59       0.0271
     67  CG         9.5340   14.3700   -2.3450 C.3    59  LYS59       0.0035
     68  CD         9.6380   12.9240   -2.7970 C.3    59  LYS59       0.0206
     69  CE        10.9770   12.6000   -3.3600 C.3    59  LYS59       0.1093
     70  NZ        11.1760   11.1230   -3.3520 N.3    59  LYS59      -0.1314
     71  N          0.9820    5.8360   -3.5110 N.3    91  THR91      -0.1218
     72  CA         0.4280    7.1710   -3.3050 C.3    91  THR91       0.1862
     73  C          0.6920    8.0140   -4.5460 C.2    91  THR91       0.2287
     74  O          1.7230    8.6800   -4.6490 O.2    91  THR91      -0.2866
     75  CB         1.0000    7.8780   -2.0410 C.3    91  THR91       0.1770
     76  OG1        2.4160    8.0560   -2.1720 O.3    91  THR91      -0.2211
     77  CG2        0.7060    7.0770   -0.7830 C.3    91  THR91       0.0375
     78  N          0.9640   14.0750   -2.2320 N.3   107  MET107     -0.1230
     79  CA         0.3260   12.7740   -2.2720 C.3   107  MET107      0.1702
     80  C         -0.3410   12.4120   -0.9460 C.2   107  MET107      0.2592
     81  O         -0.1380   13.0680    0.0750 O.2   107  MET107     -0.2718
     82  CB         1.3440   11.7030   -2.7130 C.3   107  MET107      0.0401
     83  CG         2.6710   11.7330   -2.0100 C.3   107  MET107      0.0596
     84  SD         4.0840   11.1310   -2.9960 S.3   107  MET107     -0.1393
     85  CE         5.2690   12.3730   -2.5120 C.3   107  MET107      0.0692
     86  N         -1.1540   11.3630   -0.9820 N.am  108  GLU108     -0.1966
     87  CA        -1.8610   10.8770    0.2030 C.3   108  GLU108      0.1733
     88  C         -0.9220   10.7090    1.4000 C.2   108  GLU108      0.2616
     89  O          0.1760   10.1790    1.2530 O.2   108  GLU108     -0.2715
     90  CB        -2.5270    9.5430   -0.1200 C.3   108  GLU108      0.0429
     91  CG        -3.4530    9.0060    0.9590 C.3   108  GLU108      0.1163
     92  CD        -3.9740    7.6260    0.6130 C.2   108  GLU108      0.3649
     93  OE1       -4.0030    7.2930   -0.5870 O.co2 108  GLU108     -0.2457
     94  OE2       -4.3410    6.8770    1.5370 O.co2 108  GLU108     -0.2457
     95  N         -1.3620   11.1670    2.5700 N.am  109  TYR109     -0.1960
     96  CA        -0.5950   11.0370    3.8100 C.3   109  TYR109      0.1771
     97  C         -0.9000    9.7110    4.5060 C.2   109  TYR109      0.2619
     98  O         -2.0710    9.3830    4.7550 O.2   109  TYR109     -0.2715
     99  CB        -0.9040   12.2110    4.7440 C.3   109  TYR109      0.0574
    100  CG        -0.3500   12.0800    6.1420 C.ar  109  TYR109     -0.0198
    101  CD1        1.0060   11.8860    6.3560 C.ar  109  TYR109     -0.0009
    102  CD2       -1.1840   12.1830    7.2580 C.ar  109  TYR109     -0.0009
    103  CE1        1.5230   11.7780    7.6350 C.ar  109  TYR109      0.0417
    104  CE2       -0.6720   12.0780    8.5510 C.ar  109  TYR109      0.0417
    105  CZ         0.6850   11.8800    8.7310 C.ar  109  TYR109      0.1957
    106  OH         1.2140   11.7730    9.9970 O.3   109  TYR109     -0.2866
    107  N          0.1620    8.9550    4.7970 N.am  110  ALA110     -0.1977
    108  CA         0.0780    7.7060    5.5460 C.3   110  ALA110      0.1597
    109  C          0.5460    7.9720    6.9830 C.2   110  ALA110      0.2287
    110  O          1.7450    8.1190    7.2220 O.2   110  ALA110     -0.2864
    111  CB         0.9340    6.6490    4.8920 C.3   110  ALA110      0.0319
    112  N          6.9530    4.9950    9.0370 N.3   114  GLU114     -0.1245
    113  CA         7.7450    4.0970    8.1990 C.3   114  GLU114      0.1567
    114  C          7.7270    2.6940    8.7790 C.2   114  GLU114      0.2260
    115  O          7.8250    2.5280   10.0010 O.2   114  GLU114     -0.2867
    116  CB         9.2000    4.5580    8.1500 C.3   114  GLU114      0.0388
    117  CG         9.4220    5.9700    7.6570 C.3   114  GLU114      0.1160
    118  CD        10.9040    6.3300    7.5990 C.2   114  GLU114      0.3649
    119  OE1       11.7530    5.4830    7.9580 O.co2 114  GLU114     -0.2457
    120  OE2       11.2230    7.4580    7.1910 O.co2 114  GLU114     -0.2457
    121  N         12.4660    1.6880    4.9290 N.3   156  GLU156     -0.1231
    122  CA        12.5020    3.1480    4.9700 C.3   156  GLU156      0.1699
    123  C         11.5710    3.7980    3.9530 C.2   156  GLU156      0.2592
    124  O         11.2070    4.9710    4.1150 O.2   156  GLU156     -0.2718
    125  CB        13.9240    3.6650    4.6970 C.3   156  GLU156      0.0402
    126  CG        14.9500    3.3710    5.7810 C.3   156  GLU156      0.1161
    127  CD        15.7470    2.1100    5.5210 C.2   156  GLU156      0.3649
    128  OE1       15.1460    1.0950    5.1280 O.co2 156  GLU156     -0.2457
    129  OE2       16.9730    2.1330    5.7180 O.co2 156  GLU156     -0.2457
    130  N         11.2250    3.0560    2.8980 N.am  157  ASN157     -0.1974
    131  CA        10.3820    3.5600    1.8080 C.3   157  ASN157      0.1688
    132  C          9.0030    2.8940    1.7890 C.2   157  ASN157      0.2292
    133  O          8.2840    2.9790    0.7880 O.2   157  ASN157     -0.2864
    134  CB        11.0730    3.3270    0.4500 C.3   157  ASN157      0.1181
    135  CG        12.3490    4.1360    0.2760 C.2   157  ASN157      0.2629
    136  OD1       12.6710    5.0130    1.0820 O.2   157  ASN157     -0.2716
    137  ND2       13.0800    3.8490   -0.8040 N.am  157  ASN157     -0.0877
    138  N          5.5300    2.9570    3.8960 N.3   159  MET159     -0.1245
    139  CA         4.7480    3.6920    4.8940 C.3   159  MET159      0.1570
    140  C          3.5270    2.8750    5.2870 C.2   159  MET159      0.2261
    141  O          2.9330    2.2100    4.4370 O.2   159  MET159     -0.2867
    142  CB         4.2810    5.0330    4.3270 C.3   159  MET159      0.0387
    143  CG         5.3950    5.9500    3.8050 C.3   159  MET159      0.0595
    144  SD         6.6940    6.2650    5.0180 S.3   159  MET159     -0.1393
    145  CE         7.9960    5.2330    4.3520 C.3   159  MET159      0.0692
    146  N          6.5260    4.0350   -1.4130 N.3   169  THR169     -0.1203
    147  CA         6.8290    5.4260   -1.7410 C.3   169  THR169      0.1994
    148  C          8.2600    5.5510   -2.2610 C.2   169  THR169      0.2617
    149  O          8.9450    4.5450   -2.4380 O.2   169  THR169     -0.2717
    150  CB         6.6040    6.3430   -0.4980 C.3   169  THR169      0.1784
    151  OG1        7.4920    5.9700    0.5700 O.3   169  THR169     -0.2211
    152  CG2        5.1730    6.2150   -0.0150 C.3   169  THR169      0.0376
    153  N          8.6920    6.7810   -2.5350 N.am  170  ASP170     -0.1973
    154  CA        10.0700    7.0620   -2.9630 C.3   170  ASP170      0.1709
    155  C         10.3640    6.4490   -4.3440 C.2   170  ASP170      0.2293
    156  O         11.0220    5.4040   -4.4500 O.2   170  ASP170     -0.2864
    157  CB        11.0880    6.5540   -1.9220 C.3   170  ASP170      0.1436
    158  CG        10.8110    7.0680   -0.5030 C.2   170  ASP170      0.3671
    159  OD1       11.3330    8.1380   -0.1360 O.co2 170  ASP170     -0.2456
    160  OD2       10.1030    6.3850    0.2630 O.co2 170  ASP170     -0.2456
    161  N          6.1680    9.1690   13.5540 N.3   312  PHE312     -0.1241
    162  CA         7.3300    9.6300   12.7970 C.3   312  PHE312      0.1605
    163  C          8.3600   10.1990   13.7580 C.2   312  PHE312      0.2264
    164  O          8.0050   10.7040   14.8260 O.2   312  PHE312     -0.2867
    165  CB         6.9130   10.7010   11.7890 C.3   312  PHE312      0.0534
    166  CG         6.1030   10.1660   10.6400 C.ar  312  PHE312     -0.0203
    167  CD1        6.7150    9.8260    9.4440 C.ar  312  PHE312     -0.0042
    168  CD2        4.7290    9.9820   10.7620 C.ar  312  PHE312     -0.0042
    169  CE1        5.9800    9.3160    8.3860 C.ar  312  PHE312     -0.0003
    170  CE2        3.9910    9.4770    9.7020 C.ar  312  PHE312     -0.0003
    171  CZ         4.6210    9.1430    8.5130 C.ar  312  PHE312     -0.0000
    172  N         12.6080   15.6810   13.2140 N.3   315  TYR315     -0.1241
    173  CA        13.7120   16.1930   12.4190 C.3   315  TYR315      0.1605
    174  C         13.7350   17.7000   12.5820 C.2   315  TYR315      0.2264
    175  O         12.6880   18.3130   12.8020 O.2   315  TYR315     -0.2867
    176  CB        13.4970   15.8590   10.9440 C.3   315  TYR315      0.0534
    177  CG        13.5030   14.3790   10.6140 C.ar  315  TYR315     -0.0201
    178  CD1       12.3230   13.6500   10.5790 C.ar  315  TYR315     -0.0009
    179  CD2       14.6850   13.7190   10.3110 C.ar  315  TYR315     -0.0009
    180  CE1       12.3210   12.2960   10.2640 C.ar  315  TYR315      0.0417
    181  CE2       14.6930   12.3710    9.9940 C.ar  315  TYR315      0.0417
    182  CZ        13.5070   11.6640    9.9720 C.ar  315  TYR315      0.1957
    183  OH        13.5140   10.3250    9.6530 O.3   315  TYR315     -0.2866
@<TRIPOS>BOND
     1    32    34   ar
     2    32    30   ar
     3    34    33   ar
     4    74    73    2
     5    73    72    1
     6   156   155    2
     7    30    29   ar
     8   155   154    1
     9    33    31   ar
    10    71    72    1
    11    69    70    1
    12    69    68    1
    13    72    75    1
    14    29    31   ar
    15    29    28    1
    16    84    85    1
    17    84    83    1
    18   154   153    1
    19   154   157    1
    20    68    67    1
    21    65    64    2
    22    82    79    1
    23    82    83    1
    24   153   148   am
    25   149   148    2
    26    67    66    1
    27    79    78    1
    28    79    80    1
    29   148   147    1
    30    76    75    1
    31    28    25    1
    32    66    63    1
    33    75    77    1
    34    27    26    2
    35   157   158    1
    36    25    26    1
    37    25    24    1
    38    64    63    1
    39   147   146    1
    40   147   150    1
    41    26    35   am
    42    63    62    1
    43    86    80   am
    44    86    87    1
    45    80    81    2
    46   137   135   am
    47    35    36    1
    48    93    92   ar
    49   158   159   ar
    50   158   160   ar
    51   150   152    1
    52   150   151    1
    53    36    37    1
    54    90    87    1
    55    90    91    1
    56    60    59    2
    57    87    88    1
    58   135   134    1
    59   135   136    2
    60   134   131    1
    61    92    91    1
    62    92    94   ar
    63   133   132    2
    64    42    41    2
    65    37    39   am
    66    37    38    2
    67    39    40    1
    68    59    58    1
    69    89    88    2
    70    88    95   am
    71    56    54    1
    72   132   131    1
    73   131   130    1
    74    23    22    2
    75    41    40    1
    76    41    50   am
    77    40    43    1
    78    49    47    1
    79    22    21    1
    80    57    58    1
    81    61    58    1
    82    44    43    1
    83    44    45    1
    84    95    96    1
    85    46    47    2
    86    46    45    1
    87    55    54    1
    88    54    51    1
    89    51    50    1
    90    51    52    1
    91   130   123   am
    92    47    48    1
    93    21    20    1
    94   143   142    1
    95   143   144    1
    96    96    97    1
    97    96    99    1
    98    20    15   am
    99   138   139    1
   100   123   124    2
   101   123   122    1
   102    52    53    2
   103   142   139    1
   104   145   144    1
   105   141   140    2
   106    97    98    2
   107    97   107   am
   108   125   122    1
   109   125   126    1
   110    99   100    1
   111   107   108    1
   112   111   108    1
   113   139   140    1
   114   121   122    1
   115    15    14    1
   116    15    16    2
   117   128   127   ar
   118    12    11    2
   119    14    13    1
   120    14    17    1
   121    18    17    1
   122   127   129   ar
   123   127   126    1
   124   108   109    1
   125    11    13   am
   126    11    10    1
   127    17    19    1
   128   100   101   ar
   129   100   102   ar
   130   101   103   ar
   131    10     9    1
   132     7     6    1
   133     9     3   am
   134   109   110    2
   135   120   118   ar
   136   102   104   ar
   137     5     6    1
   138     5     2    1
   139     6     8    1
   140   118   117    1
   141   118   119   ar
   142   103   105   ar
   143   117   116    1
   144     3     2    1
   145     3     4    2
   146     1     2    1
   147   116   113    1
   148   113   114    1
   149   113   112    1
   150   169   171   ar
   151   169   167   ar
   152   171   170   ar
   153   104   105   ar
   154   105   106    1
   155   114   115    2
   156   167   166   ar
   157   183   182    1
   158   170   168   ar
   159   182   181   ar
   160   182   180   ar
   161   181   179   ar
   162   180   178   ar
   163   179   177   ar
   164   178   177   ar
   165   177   176    1
   166   166   168   ar
   167   166   165    1
   168   176   173    1
   169   165   162    1
   170   173   174    1
   171   173   172    1
   172   174   175    2
   173   162   161    1
   174   162   163    1
   175   163   164    2
