@<TRIPOS>MOLECULE
tmp/2uw0A00.pdb
 197 189 0 0 0
SMALL
GASTEIGER

@<TRIPOS>ATOM
      1  N          8.1550   14.9860    8.1050 N.3    36  LEU36      -0.1231
      2  CA         8.0330   13.5550    8.3490 C.3    36  LEU36       0.1693
      3  C          9.3640   12.8340    8.1350 C.2    36  LEU36       0.2593
      4  O          9.5470   11.7230    8.6250 O.2    36  LEU36      -0.2718
      5  CB         6.9580   12.9620    7.4280 C.3    36  LEU36       0.0284
      6  CG         5.5440   13.5220    7.6100 C.3    36  LEU36       0.0019
      7  CD1        4.5820   12.9200    6.6030 C.3    36  LEU36       0.0001
      8  CD2        5.0320   13.2680    9.0310 C.3    36  LEU36       0.0001
      9  N         10.2810   13.4660    7.3980 N.am   37  GLY37      -0.1942
     10  CA        11.5870   12.8880    7.1220 C.3    37  GLY37       0.2014
     11  C         12.3130   13.6380    6.0250 C.2    37  GLY37       0.2640
     12  O         11.7100   14.4450    5.3140 O.2    37  GLY37      -0.2714
     13  N         13.6070   13.3580    5.8800 N.am   38  THR38      -0.1936
     14  CA        14.4660   14.1220    4.9780 C.3    38  THR38       0.2028
     15  C         15.2830   13.2390    4.0430 C.2    38  THR38       0.2643
     16  O         15.5270   12.0650    4.3220 O.2    38  THR38      -0.2714
     17  CB        15.4330   15.0310    5.7730 C.3    38  THR38       0.1808
     18  OG1       16.2120   14.2290    6.6650 O.3    38  THR38      -0.2208
     19  CG2       14.6600   16.0540    6.5870 C.3    38  THR38       0.0379
     20  N         15.6840   13.8340    2.9230 N.am   39  GLY39      -0.1939
     21  CA        16.6080   13.2240    1.9690 C.3    39  GLY39       0.2014
     22  C         17.6510   14.2420    1.5530 C.2    39  GLY39       0.2640
     23  O         17.6470   15.3740    2.0370 O.2    39  GLY39      -0.2714
     24  N         18.5280   13.8550    0.6310 N.am   40  SER40      -0.1935
     25  CA        19.6700   14.6990    0.2540 C.3    40  SER40       0.2055
     26  C         19.2860   15.9870   -0.4670 C.2    40  SER40       0.2643
     27  O         19.8960   17.0340   -0.2450 O.2    40  SER40      -0.2714
     28  CB        20.6640   13.9040   -0.5920 C.3    40  SER40       0.2130
     29  OG        21.3650   12.9860    0.2310 O.3    40  SER40      -0.2179
     30  N         18.2730   15.9210   -1.3210 N.am   41  PHE41      -0.1959
     31  CA        17.8500   17.1050   -2.0590 C.3    41  PHE41       0.1774
     32  C         16.4140   17.5300   -1.7080 C.2    41  PHE41       0.2659
     33  O         15.8070   18.3360   -2.4170 O.2    41  PHE41      -0.2711
     34  CB        18.0550   16.9140   -3.5740 C.3    41  PHE41       0.0574
     35  CG        17.5610   15.5940   -4.1080 C.ar   41  PHE41      -0.0200
     36  CD1       18.4410   14.5670   -4.3870 C.ar   41  PHE41      -0.0042
     37  CD2       16.2210   15.3950   -4.3540 C.ar   41  PHE41      -0.0042
     38  CE1       17.9880   13.3550   -4.8910 C.ar   41  PHE41      -0.0003
     39  CE2       15.7600   14.1890   -4.8540 C.ar   41  PHE41      -0.0003
     40  CZ        16.6480   13.1700   -5.1250 C.ar   41  PHE41      -0.0000
     41  N         15.8960   17.0390   -0.5800 N.am   42  GLY42      -0.1716
     42  CA        14.5540   17.4140   -0.1640 C.2    42  GLY42       0.1480
     43  C         14.0460   16.8120    1.1320 C.2    42  GLY42       0.2820
     44  O         14.7990   16.2070    1.9000 O.2    42  GLY42      -0.2669
     45  N         12.7460   16.9930    1.3640 N.am   43  ARG43      -0.1929
     46  CA        12.0840   16.4990    2.5680 C.3    43  ARG43       0.1732
     47  C         10.6290   16.1600    2.2570 C.2    43  ARG43       0.2616
     48  O         10.1050   16.5780    1.2260 O.2    43  ARG43      -0.2715
     49  CB        12.1690   17.5490    3.6740 C.3    43  ARG43       0.0348
     50  CG        11.0940   18.6160    3.6250 C.3    43  ARG43       0.0492
     51  CD        11.5550   19.9030    4.3070 C.3    43  ARG43       0.2205
     52  NE        11.9110   20.9300    3.3290 N.pl3  43  ARG43      -0.0865
     53  CZ        12.2540   22.1770    3.6340 C.cat  43  ARG43       0.5346
     54  NH1       12.3000   22.5760    4.9000 N.pl3  43  ARG43       0.1354
     55  NH2       12.5510   23.0280    2.6610 N.pl3  43  ARG43       0.1354
     56  N          9.9930   15.3970    3.1390 N.am   44  VAL44      -0.1977
     57  CA         8.5620   15.1260    3.0520 C.3    44  VAL44       0.1596
     58  C          7.8830   15.7330    4.2780 C.2    44  VAL44       0.2287
     59  O          8.3060   15.4950    5.4080 O.2    44  VAL44      -0.2864
     60  CB         8.2620   13.6140    2.9820 C.3    44  VAL44       0.0276
     61  CG1        6.7480   13.3590    3.0510 C.3    44  VAL44       0.0022
     62  CG2        8.8490   13.0190    1.7090 C.3    44  VAL44       0.0022
     63  N          0.8400   14.0390    2.4570 N.3    57  ALA57      -0.1245
     64  CA         2.2930   14.0900    2.5160 C.3    57  ALA57       0.1562
     65  C          2.7830   14.8870    1.3070 C.2    57  ALA57       0.2260
     66  O          2.4010   14.5970    0.1690 O.2    57  ALA57      -0.2867
     67  CB         2.8860   12.6810    2.5000 C.3    57  ALA57       0.0290
     68  N          6.1360   16.0690   -0.7150 N.3    59  LYS59      -0.1245
     69  CA         7.5670   15.9230   -0.9990 C.3    59  LYS59       0.1561
     70  C          8.0870   17.1860   -1.6670 C.2    59  LYS59       0.2260
     71  O          7.6320   17.5510   -2.7530 O.2    59  LYS59      -0.2867
     72  CB         7.7900   14.7140   -1.9150 C.3    59  LYS59       0.0271
     73  CG         9.2250   14.3890   -2.2390 C.3    59  LYS59       0.0035
     74  CD         9.3150   12.9660   -2.8540 C.3    59  LYS59       0.0206
     75  CE        10.7430   12.5700   -3.1320 C.3    59  LYS59       0.1093
     76  NZ        10.9030   11.1030   -3.3260 N.3    59  LYS59      -0.1314
     77  N         11.3460   19.1410   -3.1250 N.3    61  LEU61      -0.1245
     78  CA        12.6750   18.9270   -3.6670 C.3    61  LEU61       0.1561
     79  C         13.2680   20.2650   -4.0670 C.2    61  LEU61       0.2260
     80  O         12.6070   21.0560   -4.7240 O.2    61  LEU61      -0.2867
     81  CB        12.5910   18.0190   -4.8970 C.3    61  LEU61       0.0270
     82  CG        12.6960   16.5040   -4.7270 C.3    61  LEU61       0.0019
     83  CD1       12.2590   16.0030   -3.3470 C.3    61  LEU61       0.0001
     84  CD2       11.9530   15.7770   -5.8610 C.3    61  LEU61       0.0001
     85  N          1.2900    5.3620   -3.3340 N.3    91  THR91      -0.1218
     86  CA         0.6440    6.6770   -3.2710 C.3    91  THR91       0.1862
     87  C          0.8990    7.4660   -4.5480 C.2    91  THR91       0.2287
     88  O          1.9630    8.0720   -4.7160 O.2    91  THR91      -0.2866
     89  CB         1.0980    7.5090   -2.0530 C.3    91  THR91       0.1770
     90  OG1        2.5110    7.7360   -2.1170 O.3    91  THR91      -0.2211
     91  CG2        0.7420    6.8070   -0.7600 C.3    91  THR91       0.0375
     92  N          0.8470   13.7000   -2.0460 N.3   107  MET107     -0.1230
     93  CA         0.4030   12.3120   -2.0360 C.3   107  MET107      0.1702
     94  C         -0.4050   12.0160   -0.7850 C.2   107  MET107      0.2592
     95  O         -0.2910   12.7270    0.2160 O.2   107  MET107     -0.2718
     96  CB         1.6230   11.3900   -2.0400 C.3   107  MET107      0.0401
     97  CG         2.4620   11.4470   -3.3010 C.3   107  MET107      0.0596
     98  SD         4.1110   10.7880   -3.0200 S.3   107  MET107     -0.1393
     99  CE         4.8740   12.2040   -2.2480 C.3   107  MET107      0.0692
    100  N         -1.1990   10.9470   -0.8320 N.am  108  GLU108     -0.1966
    101  CA        -1.9470   10.4890    0.3460 C.3   108  GLU108      0.1733
    102  C         -1.0020   10.3110    1.5410 C.2   108  GLU108      0.2616
    103  O          0.0900    9.7670    1.3940 O.2   108  GLU108     -0.2715
    104  CB        -2.6760    9.1680    0.0340 C.3   108  GLU108      0.0429
    105  CG        -3.3600    8.5010    1.2420 C.3   108  GLU108      0.1163
    106  CD        -3.9700    7.1420    0.9180 C.2   108  GLU108      0.3649
    107  OE1       -3.9840    6.7470   -0.2670 O.co2 108  GLU108     -0.2457
    108  OE2       -4.4330    6.4640    1.8590 O.co2 108  GLU108     -0.2457
    109  N         -1.4210   10.7800    2.7140 N.am  109  TYR109     -0.1960
    110  CA        -0.6380   10.6440    3.9470 C.3   109  TYR109      0.1771
    111  C         -0.8890    9.2920    4.6230 C.2   109  TYR109      0.2619
    112  O         -2.0330    8.9250    4.8680 O.2   109  TYR109     -0.2715
    113  CB        -0.9800   11.7940    4.9070 C.3   109  TYR109      0.0574
    114  CG        -0.3690   11.6860    6.2860 C.ar  109  TYR109     -0.0198
    115  CD1        1.0040   11.5300    6.4530 C.ar  109  TYR109     -0.0009
    116  CD2       -1.1670   11.7530    7.4320 C.ar  109  TYR109     -0.0009
    117  CE1        1.5670   11.4430    7.7190 C.ar  109  TYR109      0.0417
    118  CE2       -0.6100   11.6610    8.7040 C.ar  109  TYR109      0.0417
    119  CZ         0.7560   11.5070    8.8440 C.ar  109  TYR109      0.1957
    120  OH         1.3070   11.4140   10.1010 O.3   109  TYR109     -0.2866
    121  N          0.1870    8.5600    4.9170 N.am  110  ALA110     -0.1977
    122  CA         0.1120    7.3070    5.6690 C.3   110  ALA110      0.1597
    123  C          0.5430    7.5600    7.1230 C.2   110  ALA110      0.2287
    124  O          1.7340    7.7420    7.3930 O.2   110  ALA110     -0.2864
    125  CB         0.9950    6.2470    5.0240 C.3   110  ALA110      0.0319
    126  N          6.8780    4.6230    9.2950 N.3   114  GLU114     -0.1245
    127  CA         7.7130    3.7550    8.4590 C.3   114  GLU114      0.1567
    128  C          7.7660    2.3460    9.0210 C.2   114  GLU114      0.2260
    129  O          7.8990    2.1710   10.2320 O.2   114  GLU114     -0.2867
    130  CB         9.1330    4.3130    8.3820 C.3   114  GLU114      0.0388
    131  CG         9.2140    5.6760    7.7380 C.3   114  GLU114      0.1160
    132  CD        10.1750    6.6200    8.4350 C.2   114  GLU114      0.3649
    133  OE1       11.2240    6.9280    7.8390 O.co2 114  GLU114     -0.2457
    134  OE2        9.8710    7.0660    9.5730 O.co2 114  GLU114     -0.2457
    135  N         12.5810    1.3050    4.9420 N.3   156  GLU156     -0.1231
    136  CA        12.5740    2.7660    5.0800 C.3   156  GLU156      0.1699
    137  C         11.5480    3.4230    4.1610 C.2   156  GLU156      0.2592
    138  O         11.0330    4.4870    4.4860 O.2   156  GLU156     -0.2718
    139  CB        13.9580    3.3590    4.7870 C.3   156  GLU156      0.0402
    140  CG        15.0280    3.1020    5.8570 C.3   156  GLU156      0.1161
    141  CD        15.8360    1.8260    5.6240 C.2   156  GLU156      0.3649
    142  OE1       15.2500    0.8150    5.2000 O.co2 156  GLU156     -0.2457
    143  OE2       17.0600    1.8290    5.8900 O.co2 156  GLU156     -0.2457
    144  N         11.2600    2.7900    3.0230 N.am  157  ASN157     -0.1974
    145  CA        10.3620    3.3530    2.0150 C.3   157  ASN157      0.1688
    146  C          8.9230    2.8380    2.0910 C.2   157  ASN157      0.2292
    147  O          8.0820    3.2420    1.2960 O.2   157  ASN157     -0.2864
    148  CB        10.9330    3.1040    0.6080 C.3   157  ASN157      0.1181
    149  CG        12.1320    3.9830    0.2920 C.2   157  ASN157      0.2629
    150  OD1       12.4230    4.9540    1.0020 O.2   157  ASN157     -0.2716
    151  ND2       12.8320    3.6500   -0.7860 N.am  157  ASN157     -0.0877
    152  N          5.5850    2.7980    4.1220 N.3   159  MET159     -0.1245
    153  CA         4.7950    3.4640    5.1510 C.3   159  MET159      0.1570
    154  C          3.5820    2.5950    5.4740 C.2   159  MET159      0.2261
    155  O          3.0590    1.8990    4.6020 O.2   159  MET159     -0.2867
    156  CB         4.3210    4.8370    4.6610 C.3   159  MET159      0.0387
    157  CG         5.4330    5.7480    4.2090 C.3   159  MET159      0.0595
    158  SD         6.6470    6.0310    5.5020 S.3   159  MET159     -0.1393
    159  CE         8.1140    6.3160    4.5150 C.3   159  MET159      0.0692
    160  N          6.6440    4.0170   -1.0880 N.3   169  THR169     -0.1203
    161  CA         6.8950    5.4340   -1.3470 C.3   169  THR169      0.1994
    162  C          8.3120    5.6340   -1.8640 C.2   169  THR169      0.2617
    163  O          9.1360    4.7170   -1.8400 O.2   169  THR169     -0.2717
    164  CB         6.6720    6.3060   -0.0680 C.3   169  THR169      0.1784
    165  OG1        7.6600    6.0050    0.9280 O.3   169  THR169     -0.2211
    166  CG2        5.3100    6.0550    0.5160 C.3   169  THR169      0.0376
    167  N          8.5770    6.8550   -2.3130 N.am  170  ASP170     -0.1973
    168  CA         9.8560    7.2610   -2.8990 C.3   170  ASP170      0.1709
    169  C         10.1990    6.5220   -4.1930 C.2   170  ASP170      0.2293
    170  O         10.8290    5.4560   -4.1850 O.2   170  ASP170     -0.2864
    171  CB        11.0090    7.1640   -1.8970 C.3   170  ASP170      0.1436
    172  CG        12.2320    7.9580   -2.3500 C.2   170  ASP170      0.3671
    173  OD1       13.1340    8.1800   -1.5210 O.co2 170  ASP170     -0.2456
    174  OD2       12.2770    8.3720   -3.5360 O.co2 170  ASP170     -0.2456
    175  N          5.9880    8.9590   13.5470 N.3   312  PHE312     -0.1241
    176  CA         7.1830    9.4450   12.8580 C.3   312  PHE312      0.1605
    177  C          8.1470   10.0850   13.8530 C.2   312  PHE312      0.2264
    178  O          7.7350   10.5530   14.9150 O.2   312  PHE312     -0.2867
    179  CB         6.7950   10.4600   11.7830 C.3   312  PHE312      0.0534
    180  CG         6.0410    9.8590   10.6360 C.ar  312  PHE312     -0.0203
    181  CD1        6.7210    9.3650    9.5310 C.ar  312  PHE312     -0.0042
    182  CD2        4.6580    9.7580   10.6700 C.ar  312  PHE312     -0.0042
    183  CE1        6.0400    8.7980    8.4760 C.ar  312  PHE312     -0.0003
    184  CE2        3.9660    9.1950    9.6070 C.ar  312  PHE312     -0.0003
    185  CZ         4.6610    8.7080    8.5120 C.ar  312  PHE312     -0.0000
    186  N         12.1830   15.9300   13.3460 N.3   315  TYR315     -0.1241
    187  CA        13.2340   16.4900   12.5110 C.3   315  TYR315      0.1605
    188  C         13.2140   17.9890   12.6900 C.2   315  TYR315      0.2264
    189  O         12.1470   18.5650   12.9210 O.2   315  TYR315     -0.2867
    190  CB        12.9830   16.1430   11.0470 C.3   315  TYR315      0.0534
    191  CG        13.0010   14.6580   10.7790 C.ar  315  TYR315     -0.0201
    192  CD1       11.8510   13.8830   10.9270 C.ar  315  TYR315     -0.0009
    193  CD2       14.1750   14.0230   10.3990 C.ar  315  TYR315     -0.0009
    194  CE1       11.8740   12.5120   10.6930 C.ar  315  TYR315      0.0417
    195  CE2       14.2060   12.6680   10.1540 C.ar  315  TYR315      0.0417
    196  CZ        13.0580   11.9150   10.3030 C.ar  315  TYR315      0.1957
    197  OH        13.1180   10.5670   10.0550 O.3   315  TYR315     -0.2866
@<TRIPOS>BOND
     1    84    82    1
     2    40    38   ar
     3    40    39   ar
     4    81    82    1
     5    81    78    1
     6    38    36   ar
     7    39    37   ar
     8    82    83    1
     9    80    79    2
    10    88    87    2
    11    87    86    1
    12    36    35   ar
    13    37    35   ar
    14   169   170    2
    15   169   168    1
    16    35    34    1
    17    79    78    1
    18    78    77    1
    19    34    31    1
    20   174   172   ar
    21    85    86    1
    22    76    75    1
    23    97    98    1
    24    97    96    1
    25    86    89    1
    26    75    74    1
    27    98    99    1
    28   168   167    1
    29   168   171    1
    30    74    73    1
    31    71    70    2
    32    33    32    2
    33   172   171    1
    34   172   173   ar
    35   167   162   am
    36    73    72    1
    37    90    89    1
    38    31    32    1
    39    31    30    1
    40    89    91    1
    41    92    93    1
    42    96    93    1
    43    93    94    1
    44    72    69    1
    45   162   163    2
    46   162   161    1
    47    32    41    1
    48    70    69    1
    49   161   160    1
    50   161   164    1
    51    30    26   am
    52    69    68    1
    53   100    94   am
    54   100   101    1
    55   151   149   am
    56    94    95    2
    57    28    29    1
    58    28    25    1
    59    41    42    2
    60    26    27    2
    61    26    25    1
    62   107   106   ar
    63    42    43    1
    64   164   166    1
    65   164   165    1
    66   104   101    1
    67   104   105    1
    68    66    65    2
    69    25    24    1
    70   149   148    1
    71   149   150    2
    72   101   102    1
    73   148   145    1
    74    24    22   am
    75   106   105    1
    76   106   108   ar
    77    43    45   am
    78    43    44    2
    79    48    47    2
    80   147   146    2
    81    65    64    1
    82    45    46    1
    83   103   102    2
    84   102   109   am
    85    22    21    1
    86    22    23    2
    87    62    60    1
    88    21    20    1
    89   145   146    1
    90   145   144    1
    91    47    46    1
    92    47    56   am
    93    63    64    1
    94    67    64    1
    95    46    49    1
    96    55    53    1
    97   109   110    1
    98    20    15   am
    99    60    61    1
   100    60    57    1
   101   144   137   am
   102    57    56    1
   103    57    58    1
   104    52    53    2
   105    52    51    1
   106    50    49    1
   107    50    51    1
   108    53    54    1
   109   110   111    1
   110   110   113    1
   111    15    16    2
   112    15    14    1
   113   152   153    1
   114   137   138    2
   115   137   136    1
   116   157   156    1
   117   157   158    1
   118    58    59    2
   119   159   158    1
   120   155   154    2
   121   111   112    2
   122   111   121   am
   123   156   153    1
   124   139   136    1
   125   139   140    1
   126   113   114    1
   127   121   122    1
   128   135   136    1
   129    14    17    1
   130    14    13    1
   131   125   122    1
   132   153   154    1
   133   142   141   ar
   134    12    11    2
   135   141   140    1
   136   141   143   ar
   137   122   123    1
   138    17    19    1
   139    17    18    1
   140    13    11   am
   141    11    10    1
   142   114   115   ar
   143   114   116   ar
   144   115   117   ar
   145     7     6    1
   146    10     9    1
   147   123   124    2
   148     9     3   am
   149     5     6    1
   150     5     2    1
   151   116   118   ar
   152     6     8    1
   153   117   119   ar
   154   131   130    1
   155   131   132    1
   156   133   132   ar
   157     1     2    1
   158     3     2    1
   159     3     4    2
   160   130   127    1
   161   132   134   ar
   162   127   128    1
   163   127   126    1
   164   183   185   ar
   165   183   181   ar
   166   185   184   ar
   167   118   119   ar
   168   119   120    1
   169   128   129    2
   170   181   180   ar
   171   184   182   ar
   172   197   196    1
   173   195   196   ar
   174   195   193   ar
   175   196   194   ar
   176   193   191   ar
   177   180   182   ar
   178   180   179    1
   179   194   192   ar
   180   191   192   ar
   181   191   190    1
   182   190   187    1
   183   179   176    1
   184   187   188    1
   185   187   186    1
   186   188   189    2
   187   176   175    1
   188   176   177    1
   189   177   178    2
