@<TRIPOS>MOLECULE
tmp/2uw1B00.pdb
 157 151 0 0 0
SMALL
GASTEIGER

@<TRIPOS>ATOM
      1  N          3.8270  -24.7410   26.7830 N.3    79  THR79      -0.1203
      2  CA         2.8690  -25.6460   27.4180 C.3    79  THR79       0.1994
      3  C          1.6470  -24.8960   27.9670 C.2    79  THR79       0.2617
      4  O          0.5030  -25.3030   27.7210 O.2    79  THR79      -0.2717
      5  CB         3.5390  -26.5000   28.5050 C.3    79  THR79       0.1784
      6  OG1        4.6560  -27.1890   27.9300 O.3    79  THR79      -0.2211
      7  CG2        2.5480  -27.5240   29.0760 C.3    79  THR79       0.0376
      8  N          1.8900  -23.7960   28.6730 N.am   80  GLU80      -0.1979
      9  CA         0.8130  -22.9650   29.2110 C.3    80  GLU80       0.1602
     10  C         -0.1170  -22.4140   28.1310 C.2    80  GLU80       0.2287
     11  O         -1.3420  -22.3880   28.3060 O.2    80  GLU80      -0.2864
     12  CB         1.3850  -21.8050   30.0480 C.3    80  GLU80       0.0415
     13  CG         2.0480  -22.2460   31.3480 C.3    80  GLU80       0.1163
     14  CD         1.0500  -22.6640   32.4190 C.2    80  GLU80       0.3649
     15  OE1       -0.1750  -22.5810   32.1750 O.co2  80  GLU80      -0.2457
     16  OE2        1.4900  -23.0700   33.5190 O.co2  80  GLU80      -0.2457
     17  N         -6.4660  -28.0990   26.9270 N.3    86  TYR86      -0.1241
     18  CA        -6.7090  -28.6330   28.2670 C.3    86  TYR86       0.1605
     19  C         -8.1560  -28.4800   28.7010 C.2    86  TYR86       0.2264
     20  O         -8.7210  -29.3880   29.3030 O.2    86  TYR86      -0.2867
     21  CB        -5.7470  -28.0100   29.2900 C.3    86  TYR86       0.0534
     22  CG        -4.3270  -27.9380   28.7720 C.ar   86  TYR86      -0.0201
     23  CD1       -3.7980  -28.9630   27.9710 C.ar   86  TYR86      -0.0009
     24  CD2       -3.5130  -26.8460   29.0710 C.ar   86  TYR86      -0.0009
     25  CE1       -2.4930  -28.8990   27.4860 C.ar   86  TYR86       0.0417
     26  CE2       -2.2060  -26.7750   28.5900 C.ar   86  TYR86       0.0417
     27  CZ        -1.7060  -27.8040   27.8030 C.ar   86  TYR86       0.1957
     28  OH        -0.4160  -27.7290   27.3300 O.3    86  TYR86      -0.2866
     29  N        -10.0620  -31.1260   27.0450 N.3    89  MET89      -0.1230
     30  CA        -9.8670  -32.3750   27.7790 C.3    89  MET89       0.1702
     31  C        -10.9000  -32.5090   28.8980 C.2    89  MET89       0.2592
     32  O        -11.5780  -33.5230   28.9980 O.2    89  MET89      -0.2718
     33  CB        -8.4490  -32.4650   28.3580 C.3    89  MET89       0.0401
     34  CG        -8.0620  -33.8750   28.8340 C.3    89  MET89       0.0596
     35  SD        -7.2920  -33.8820   30.4760 S.3    89  MET89      -0.1393
     36  CE        -8.7530  -33.9210   31.4970 C.3    89  MET89       0.0692
     37  N        -11.0050  -31.4820   29.7360 N.am   90  LEU90      -0.1980
     38  CA       -11.9870  -31.4670   30.8200 C.3    90  LEU90       0.1596
     39  C        -13.4160  -31.5150   30.2740 C.2    90  LEU90       0.2287
     40  O        -14.2950  -32.1630   30.8580 O.2    90  LEU90      -0.2864
     41  CB       -11.7980  -30.2240   31.6950 C.3    90  LEU90       0.0297
     42  CG       -10.5900  -30.2220   32.6270 C.3    90  LEU90       0.0022
     43  CD1      -10.2980  -28.8190   33.1290 C.3    90  LEU90       0.0001
     44  CD2      -10.8190  -31.1730   33.8040 C.3    90  LEU90       0.0001
     45  N        -11.1160  -22.5870   36.4620 N.3   114  TRP114     -0.1241
     46  CA        -9.7360  -23.0950   36.3420 C.3   114  TRP114      0.1605
     47  C         -9.0840  -22.6230   35.0430 C.2   114  TRP114      0.2264
     48  O         -7.9510  -22.1560   35.0460 O.2   114  TRP114     -0.2867
     49  CB        -9.7090  -24.6300   36.4360 C.3   114  TRP114      0.0550
     50  CG        -8.3510  -25.2550   36.1790 C.ar  114  TRP114      0.0003
     51  CD1       -7.3950  -25.5390   37.1090 C.ar  114  TRP114      0.0946
     52  CD2       -7.8150  -25.6670   34.9150 C.ar  114  TRP114      0.0152
     53  NE1       -6.2960  -26.1040   36.5080 N.ar  114  TRP114     -0.2442
     54  CE2       -6.5250  -26.1980   35.1610 C.ar  114  TRP114      0.0810
     55  CE3       -8.2990  -25.6480   33.5970 C.ar  114  TRP114      0.0012
     56  CZ2       -5.7040  -26.6980   34.1340 C.ar  114  TRP114      0.0191
     57  CZ3       -7.4780  -26.1420   32.5690 C.ar  114  TRP114      0.0001
     58  CH2       -6.1980  -26.6610   32.8480 C.ar  114  TRP114      0.0015
     59  N         -5.8650  -20.2920   34.5410 N.3   118  GLU118     -0.1245
     60  CA        -4.7650  -20.7920   33.7130 C.3   118  GLU118      0.1567
     61  C         -4.3600  -19.8350   32.6040 C.2   118  GLU118      0.2260
     62  O         -3.1950  -19.8030   32.1960 O.2   118  GLU118     -0.2867
     63  CB        -5.1590  -22.1320   33.0850 C.3   118  GLU118      0.0388
     64  CG        -5.1170  -23.2960   34.0450 C.3   118  GLU118      0.1160
     65  CD        -3.7230  -23.6020   34.5370 C.2   118  GLU118      0.3649
     66  OE1       -2.7470  -23.3570   33.7970 O.co2 118  GLU118     -0.2457
     67  OE2       -3.5980  -24.0920   35.6720 O.co2 118  GLU118     -0.2457
     68  N         -1.4190  -17.5260   33.1590 N.3   121  HIS121     -0.1241
     69  CA        -0.0870  -18.1360   33.1830 C.3   121  HIS121      0.1621
     70  C          0.6340  -17.8790   31.8580 C.2   121  HIS121      0.2264
     71  O          1.7550  -17.3710   31.8420 O.2   121  HIS121     -0.2867
     72  CB        -0.1770  -19.6460   33.4770 C.3   121  HIS121      0.0745
     73  CG        -0.8280  -19.9860   34.7880 C.ar  121  HIS121      0.0817
     74  ND1       -0.9350  -21.2810   35.2480 N.ar  121  HIS121     -0.2268
     75  CD2       -1.3950  -19.2020   35.7390 C.ar  121  HIS121      0.1154
     76  CE1       -1.5540  -21.2820   36.4170 C.ar  121  HIS121      0.1986
     77  NE2       -1.8400  -20.0330   36.7390 N.ar  121  HIS121     -0.2212
     78  N         -3.0980  -33.1700   22.1500 N.3   152  MET152     -0.1245
     79  CA        -2.3760  -34.0910   23.0270 C.3   152  MET152      0.1570
     80  C         -3.1420  -35.4080   23.1430 C.2   152  MET152      0.2261
     81  O         -4.3460  -35.4630   22.8880 O.2   152  MET152     -0.2867
     82  CB        -2.1410  -33.4660   24.4130 C.3   152  MET152      0.0387
     83  CG        -3.4030  -33.2990   25.2590 C.3   152  MET152      0.0595
     84  SD        -3.0990  -32.4650   26.8250 S.3   152  MET152     -0.1393
     85  CE        -4.6510  -32.7650   27.6680 C.3   152  MET152      0.0692
     86  N         -4.7220  -37.9530   36.5850 N.3   166  TYR166     -0.1227
     87  CA        -3.7490  -37.3030   35.7150 C.3   166  TYR166      0.1736
     88  C         -3.4970  -35.8340   36.1030 C.2   166  TYR166      0.2596
     89  O         -2.3440  -35.4030   36.1790 O.2   166  TYR166     -0.2718
     90  CB        -4.1890  -37.4040   34.2490 C.3   166  TYR166      0.0548
     91  CG        -3.2490  -36.7180   33.2910 C.ar  166  TYR166     -0.0200
     92  CD1       -2.1640  -37.3970   32.7390 C.ar  166  TYR166     -0.0009
     93  CD2       -3.4370  -35.3790   32.9440 C.ar  166  TYR166     -0.0009
     94  CE1       -1.2900  -36.7570   31.8560 C.ar  166  TYR166      0.0417
     95  CE2       -2.5730  -34.7390   32.0630 C.ar  166  TYR166      0.0417
     96  CZ        -1.5090  -35.4220   31.5280 C.ar  166  TYR166      0.1957
     97  OH        -0.6600  -34.7570   30.6670 O.3   166  TYR166     -0.2866
     98  N         -4.5660  -35.0710   36.3320 N.am  167  THR167     -0.1953
     99  CA        -4.4230  -33.6360   36.6300 C.3   167  THR167      0.1897
    100  C         -3.8420  -33.3920   38.0210 C.2   167  THR167      0.2313
    101  O         -3.0910  -32.4320   38.2270 O.2   167  THR167     -0.2863
    102  CB        -5.7420  -32.8540   36.4900 C.3   167  THR167      0.1794
    103  OG1       -6.7530  -33.4810   37.2820 O.3   167  THR167     -0.2208
    104  CG2       -6.1870  -32.7870   35.0210 C.3   167  THR167      0.0378
    105  N         -0.1150  -33.9960   37.2920 N.3   170  GLN170     -0.1231
    106  CA         0.5150  -33.0090   36.4180 C.3   170  GLN170      0.1698
    107  C          0.5420  -31.5980   37.0030 C.2   170  GLN170      0.2592
    108  O          1.4930  -30.8450   36.7640 O.2   170  GLN170     -0.2718
    109  CB        -0.1390  -33.0120   35.0330 C.3   170  GLN170      0.0381
    110  CG         0.8380  -32.7700   33.8770 C.3   170  GLN170      0.0905
    111  CD         1.9360  -33.8270   33.7980 C.2   170  GLN170      0.2608
    112  OE1        2.8280  -33.8780   34.6440 O.2   170  GLN170     -0.2717
    113  NE2        1.8760  -34.6670   32.7770 N.am  170  GLN170     -0.0878
    114  N         -0.4850  -31.2300   37.7620 N.am  171  GLU171     -0.1979
    115  CA        -0.4630  -29.9190   38.4360 C.3   171  GLU171      0.1602
    116  C          0.6350  -29.8500   39.4970 C.2   171  GLU171      0.2287
    117  O          1.2790  -28.8140   39.6580 O.2   171  GLU171     -0.2864
    118  CB        -1.8250  -29.5420   39.0240 C.3   171  GLU171      0.0415
    119  CG        -2.8680  -29.1010   37.9810 C.3   171  GLU171      0.1163
    120  CD        -2.6320  -27.6930   37.4260 C.2   171  GLU171      0.3649
    121  OE1       -1.4710  -27.2440   37.3480 O.co2 171  GLU171     -0.2457
    122  OE2       -3.6140  -27.0230   37.0440 O.co2 171  GLU171     -0.2457
    123  N          3.9290  -29.3840   37.5040 N.3   174  THR174     -0.1218
    124  CA         4.1940  -28.0190   37.0780 C.3   174  THR174      0.1862
    125  C          4.4890  -27.1090   38.2780 C.2   174  THR174      0.2287
    126  O          5.2920  -26.1830   38.1480 O.2   174  THR174     -0.2866
    127  CB         3.1340  -27.4610   36.0800 C.3   174  THR174      0.1770
    128  OG1        3.4460  -26.1030   35.7520 O.3   174  THR174     -0.2211
    129  CG2        1.7330  -27.5350   36.6440 C.3   174  THR174      0.0375
    130  N         -0.9150  -23.4100   40.9500 N.3   204  GLU204     -0.1245
    131  CA        -0.7470  -24.8520   40.7730 C.3   204  GLU204      0.1567
    132  C         -0.9160  -25.6390   42.0610 C.2   204  GLU204      0.2260
    133  O         -1.4940  -26.7260   42.0390 O.2   204  GLU204     -0.2867
    134  CB         0.5870  -25.1420   40.0950 C.3   204  GLU204      0.0388
    135  CG         0.5410  -24.6680   38.6680 C.3   204  GLU204      0.1160
    136  CD         1.8670  -24.2860   38.0870 C.2   204  GLU204      0.3649
    137  OE1        2.8650  -24.1670   38.8240 O.co2 204  GLU204     -0.2457
    138  OE2        1.9020  -24.1030   36.8610 O.co2 204  GLU204     -0.2457
    139  N         -7.7960  -31.0070   42.7800 N.3   211  TYR211     -0.1241
    140  CA        -7.8720  -32.2780   42.0560 C.3   211  TYR211      0.1605
    141  C         -7.5650  -33.4840   42.9500 C.2   211  TYR211      0.2264
    142  O         -8.2250  -34.5200   42.8600 O.2   211  TYR211     -0.2867
    143  CB        -6.9430  -32.2520   40.8450 C.3   211  TYR211      0.0534
    144  CG        -7.4150  -31.3360   39.7320 C.ar  211  TYR211     -0.0201
    145  CD1       -8.6410  -31.5500   39.1060 C.ar  211  TYR211     -0.0009
    146  CD2       -6.6270  -30.2800   39.2890 C.ar  211  TYR211     -0.0009
    147  CE1       -9.0810  -30.7230   38.0750 C.ar  211  TYR211      0.0417
    148  CE2       -7.0600  -29.4360   38.2530 C.ar  211  TYR211      0.0417
    149  CZ        -8.2870  -29.6730   37.6530 C.ar  211  TYR211      0.1957
    150  OH        -8.7380  -28.8730   36.6320 O.3   211  TYR211     -0.2866
    151  N          1.6700  -32.8490   28.9310 N.3   241  PRO241     -0.2116
    152  CA         0.6530  -32.2540   28.0490 C.3   241  PRO241      0.1372
    153  C          1.1860  -31.7910   26.6900 C.2   241  PRO241      0.2244
    154  O          0.4750  -31.9060   25.6890 O.2   241  PRO241     -0.2868
    155  CB         0.1080  -31.0700   28.8600 C.3   241  PRO241      0.0268
    156  CG         0.9940  -30.9210   30.0270 C.3   241  PRO241      0.0207
    157  CD         1.6910  -32.2130   30.2590 C.3   241  PRO241      0.0892
@<TRIPOS>BOND
     1    78    79    1
     2    81    80    2
     3    79    80    1
     4    79    82    1
     5    82    83    1
     6    83    84    1
     7   154   153    2
     8   153   152    1
     9     1     2    1
    10    84    85    1
    11    17    18    1
    12    29    30    1
    13    28    27    1
    14     2     3    1
    15     2     5    1
    16    25    27   ar
    17    25    23   ar
    18     4     3    2
    19    30    33    1
    20    30    31    1
    21    27    26   ar
    22     6     5    1
    23     3     8   am
    24    23    22   ar
    25   152   155    1
    26   152   151    1
    27    10    11    2
    28    10     9    1
    29    18    19    1
    30    18    21    1
    31    33    34    1
    32     5     7    1
    33    26    24   ar
    34     8     9    1
    35    19    20    2
    36    22    24   ar
    37    22    21    1
    38    34    35    1
    39   155   156    1
    40    31    32    2
    41    31    37   am
    42   151   157    1
    43     9    12    1
    44    37    38    1
    45   156   157    1
    46    12    13    1
    47    39    38    1
    48    39    40    2
    49    35    36    1
    50    97    96    1
    51    38    41    1
    52    13    14    1
    53    96    94   ar
    54    96    95   ar
    55    41    42    1
    56    71    70    2
    57    94    92   ar
    58    70    69    1
    59    95    93   ar
    60    15    14   ar
    61    62    61    2
    62    14    16   ar
    63    57    58   ar
    64    57    55   ar
    65    61    60    1
    66    42    43    1
    67    42    44    1
    68    92    91   ar
    69   113   111   am
    70    58    56   ar
    71    93    91   ar
    72    63    60    1
    73    63    64    1
    74    68    69    1
    75    69    72    1
    76    91    90    1
    77    72    73    1
    78    55    52   ar
    79    60    59    1
    80    66    65   ar
    81   111   110    1
    82   111   112    2
    83   110   109    1
    84    64    65    1
    85    56    54   ar
    86    90    87    1
    87    65    67   ar
    88    73    74   ar
    89    73    75   ar
    90    52    54   ar
    91    52    50   ar
    92   104   102    1
    93   109   106    1
    94    47    48    2
    95    47    46    1
    96    54    53   ar
    97    74    76   ar
    98    87    88    1
    99    87    86    1
   100    75    77   ar
   101   128   127    1
   102   127   129    1
   103   127   124    1
   104    88    89    2
   105    88    98   am
   106    50    49    1
   107    50    51   ar
   108    98    99    1
   109    46    49    1
   110    46    45    1
   111    76    77   ar
   112   106   107    1
   113   106   105    1
   114   102    99    1
   115   102   103    1
   116    53    51   ar
   117    99   100    1
   118   150   149    1
   119   108   107    2
   120   138   136   ar
   121   107   114   am
   122   122   120   ar
   123   124   123    1
   124   124   125    1
   125   121   120   ar
   126   120   119    1
   127   149   147   ar
   128   149   148   ar
   129   114   115    1
   130   119   118    1
   131   100   101    2
   132   147   145   ar
   133   136   135    1
   134   136   137   ar
   135   126   125    2
   136   148   146   ar
   137   115   118    1
   138   115   116    1
   139   135   134    1
   140   145   144   ar
   141   146   144   ar
   142   116   117    2
   143   144   143    1
   144   134   131    1
   145   131   130    1
   146   131   132    1
   147   143   140    1
   148   133   132    2
   149   140   139    1
   150   140   141    1
   151   142   141    2
