@<TRIPOS>MOLECULE
tmp/2uw3A00.pdb
 117 109 0 0 0
SMALL
GASTEIGER

@<TRIPOS>ATOM
      1  N          8.5560   15.0030    8.1600 N.3    36  LEU36      -0.1231
      2  CA         8.3650   13.5620    8.3920 C.3    36  LEU36       0.1693
      3  C          9.5700   12.7210    8.0190 C.2    36  LEU36       0.2592
      4  O          9.6830   11.5760    8.4520 O.2    36  LEU36      -0.2718
      5  CB         7.2340   13.0840    7.5020 C.3    36  LEU36       0.0284
      6  CG         5.8930   13.7510    7.7410 C.3    36  LEU36       0.0019
      7  CD1        4.9060   13.2510    6.6780 C.3    36  LEU36       0.0001
      8  CD2        5.4550   13.4000    9.1480 C.3    36  LEU36       0.0001
      9  N         10.4380   13.2700    7.1760 N.am   37  GLY37      -0.1957
     10  CA        11.6250   12.5590    6.7410 C.3    37  GLY37       0.1869
     11  C         12.5140   13.4460    5.8990 C.2    37  GLY37       0.2309
     12  O         12.0610   14.4470    5.3370 O.2    37  GLY37      -0.2863
     13  N         10.4110   15.5530    3.1660 N.3    44  VAL44      -0.1245
     14  CA         8.9830   15.2840    3.1180 C.3    44  VAL44       0.1561
     15  C          8.3440   15.8950    4.3910 C.2    44  VAL44       0.2260
     16  O          8.7910   15.6410    5.5300 O.2    44  VAL44      -0.2867
     17  CB         8.6720   13.7640    2.9680 C.3    44  VAL44       0.0252
     18  CG1        7.1680   13.4990    2.9850 C.3    44  VAL44       0.0019
     19  CG2        9.2770   13.1940    1.6580 C.3    44  VAL44       0.0019
     20  N          1.3390   14.5310    2.5260 N.3    57  ALA57      -0.1245
     21  CA         2.7930   14.4940    2.6390 C.3    57  ALA57       0.1562
     22  C          3.3540   15.1450    1.3930 C.2    57  ALA57       0.2260
     23  O          3.1420   14.6500    0.2930 O.2    57  ALA57      -0.2867
     24  CB         3.2850   13.0570    2.7500 C.3    57  ALA57       0.0290
     25  N          1.8050    5.4110   -2.4610 N.3    91  THR91      -0.1218
     26  CA         1.3610    6.7640   -2.0920 C.3    91  THR91       0.1862
     27  C          0.9390    7.4980   -3.3430 C.2    91  THR91       0.2287
     28  O          1.7570    7.7490   -4.2420 O.2    91  THR91      -0.2866
     29  CB         2.4450    7.6100   -1.4220 C.3    91  THR91       0.1770
     30  OG1        3.6310    7.6590   -2.2640 O.3    91  THR91      -0.2211
     31  CG2        2.7420    7.0560   -0.0430 C.3    91  THR91       0.0375
     32  N          1.4200   13.9380   -1.8700 N.3   107  MET107     -0.1230
     33  CA         0.9290   12.5960   -1.8620 C.3   107  MET107      0.1702
     34  C          0.0520   12.4090   -0.6550 C.2   107  MET107      0.2592
     35  O          0.0850   13.2210    0.2610 O.2   107  MET107     -0.2718
     36  CB         2.1170   11.6330   -1.7930 C.3   107  MET107      0.0401
     37  CG         3.0260   11.7070   -3.0520 C.3   107  MET107      0.0596
     38  SD         4.6230   10.9430   -2.7300 S.3   107  MET107     -0.1393
     39  CE         5.5160   12.3330   -2.0460 C.3   107  MET107      0.0692
     40  N         -0.7240   11.3320   -0.6490 N.am  108  GLU108     -0.1966
     41  CA        -1.4970   10.9820    0.5320 C.3   108  GLU108      0.1733
     42  C         -0.5990   10.7470    1.7490 C.2   108  GLU108      0.2616
     43  O          0.5160   10.2390    1.6210 O.2   108  GLU108     -0.2715
     44  CB        -2.4420    9.7970    0.2700 C.3   108  GLU108      0.0429
     45  CG        -1.8030    8.5170   -0.1890 C.3   108  GLU108      0.1163
     46  CD        -2.8090    7.5660   -0.8750 C.2   108  GLU108      0.3649
     47  OE1       -2.4140    6.8530   -1.8360 O.co2 108  GLU108     -0.2457
     48  OE2       -3.9870    7.5550   -0.4570 O.co2 108  GLU108     -0.2457
     49  N         -1.0890   11.1500    2.9260 N.am  109  TYR109     -0.1960
     50  CA        -0.3540   10.9600    4.1760 C.3   109  TYR109      0.1771
     51  C         -0.7560    9.6260    4.8330 C.2   109  TYR109      0.2619
     52  O         -1.9350    9.3420    4.9960 O.2   109  TYR109     -0.2715
     53  CB        -0.5920   12.1450    5.0940 C.3   109  TYR109      0.0574
     54  CG        -0.0530   11.9750    6.4720 C.ar  109  TYR109     -0.0198
     55  CD1        1.2830   11.7190    6.6720 C.ar  109  TYR109     -0.0009
     56  CD2       -0.8780   12.0850    7.5880 C.ar  109  TYR109     -0.0009
     57  CE1        1.8060   11.5500    7.9400 C.ar  109  TYR109      0.0417
     58  CE2       -0.3600   11.9260    8.8710 C.ar  109  TYR109      0.0417
     59  CZ         0.9890   11.6550    9.0360 C.ar  109  TYR109      0.1957
     60  OH         1.5470   11.4910   10.2800 O.3   109  TYR109     -0.2866
     61  N          0.2480    8.8070    5.1580 N.am  110  ALA110     -0.1977
     62  CA         0.0580    7.5360    5.8210 C.3   110  ALA110      0.1597
     63  C          0.5630    7.7190    7.2410 C.2   110  ALA110      0.2287
     64  O          1.7730    7.7560    7.4730 O.2   110  ALA110     -0.2864
     65  CB         0.8270    6.4180    5.0840 C.3   110  ALA110      0.0319
     66  N          6.9080    4.6710    9.0660 N.3   114  GLU114     -0.1245
     67  CA         7.6720    3.7600    8.2280 C.3   114  GLU114      0.1567
     68  C          7.6460    2.3430    8.8010 C.2   114  GLU114      0.2260
     69  O          7.6650    2.1620   10.0000 O.2   114  GLU114     -0.2867
     70  CB         9.1210    4.2280    8.1280 C.3   114  GLU114      0.0388
     71  CG         9.2920    5.5780    7.4750 C.3   114  GLU114      0.1160
     72  CD        10.7110    6.1360    7.5690 C.2   114  GLU114      0.3649
     73  OE1       11.6630    5.4210    7.9810 O.co2 114  GLU114     -0.2457
     74  OE2       10.8770    7.3120    7.2110 O.co2 114  GLU114     -0.2457
     75  N         12.3280    1.5180    4.8370 N.3   156  GLU156     -0.1245
     76  CA        12.3540    2.9550    4.9570 C.3   156  GLU156      0.1567
     77  C         11.3680    3.5630    3.9910 C.2   156  GLU156      0.2260
     78  O         10.8570    4.6350    4.2440 O.2   156  GLU156     -0.2867
     79  CB        13.7590    3.4950    4.6540 C.3   156  GLU156      0.0388
     80  CG        14.8220    3.2180    5.7170 C.3   156  GLU156      0.1160
     81  CD        15.6050    1.9370    5.4760 C.2   156  GLU156      0.3649
     82  OE1       15.0000    0.9020    5.1140 O.co2 156  GLU156     -0.2457
     83  OE2       16.8190    1.9560    5.6990 O.co2 156  GLU156     -0.2457
     84  N          5.3680    2.8870    3.9950 N.3   159  MET159     -0.1245
     85  CA         4.6030    3.5960    4.9990 C.3   159  MET159      0.1570
     86  C          3.4210    2.7430    5.4080 C.2   159  MET159      0.2261
     87  O          2.8880    2.0120    4.5780 O.2   159  MET159     -0.2867
     88  CB         4.1240    4.9390    4.4360 C.3   159  MET159      0.0387
     89  CG         5.2640    5.8950    4.0450 C.3   159  MET159      0.0595
     90  SD         6.3640    6.2860    5.4330 S.3   159  MET159     -0.1393
     91  CE         7.8500    6.7550    4.5410 C.3   159  MET159      0.0692
     92  N          6.3900    4.2660   -1.2060 N.3   169  THR169     -0.1203
     93  CA         6.6530    5.6480   -1.6020 C.3   169  THR169      0.1994
     94  C          8.1060    5.8390   -2.0000 C.2   169  THR169      0.2617
     95  O          8.8980    4.9210   -1.9070 O.2   169  THR169     -0.2717
     96  CB         6.2510    6.6120   -0.4480 C.3   169  THR169      0.1784
     97  OG1        6.1640    7.9500   -0.9490 O.3   169  THR169     -0.2211
     98  CG2        7.2480    6.5140    0.7420 C.3   169  THR169      0.0376
     99  N          8.4460    7.0470   -2.4370 N.am  170  ASP170     -0.1973
    100  CA         9.7640    7.3920   -2.9710 C.3   170  ASP170      0.1709
    101  C         10.0890    6.6780   -4.2790 C.2   170  ASP170      0.2293
    102  O         10.6870    5.5850   -4.2770 O.2   170  ASP170     -0.2864
    103  CB        10.8980    7.1430   -1.9720 C.3   170  ASP170      0.1436
    104  CG        12.1980    7.9040   -2.3490 C.2   170  ASP170      0.3671
    105  OD1       12.3330    8.3530   -3.5250 O.co2 170  ASP170     -0.2456
    106  OD2       13.0640    8.0800   -1.4450 O.co2 170  ASP170     -0.2456
    107  N          6.2620    9.0460   13.5710 N.3   312  PHE312     -0.1241
    108  CA         7.4350    9.4590   12.7840 C.3   312  PHE312      0.1605
    109  C          8.4730   10.0730   13.7220 C.2   312  PHE312      0.2264
    110  O          8.1110   10.5580   14.7730 O.2   312  PHE312     -0.2867
    111  CB         7.0260   10.4810   11.7510 C.3   312  PHE312      0.0534
    112  CG         6.1910    9.9190   10.6390 C.ar  312  PHE312     -0.0203
    113  CD1        6.7900    9.4180    9.4940 C.ar  312  PHE312     -0.0042
    114  CD2        4.8140    9.8660   10.7460 C.ar  312  PHE312     -0.0042
    115  CE1        6.0310    8.9000    8.4620 C.ar  312  PHE312     -0.0003
    116  CE2        4.0430    9.3470    9.6990 C.ar  312  PHE312     -0.0003
    117  CZ         4.6610    8.8750    8.5550 C.ar  312  PHE312     -0.0000
@<TRIPOS>BOND
     1   101   102    2
     2   101   100    1
     3    28    27    2
     4   105   104   ar
     5    27    26    1
     6    37    38    1
     7    37    36    1
     8   100    99    1
     9   100   103    1
    10    38    39    1
    11    25    26    1
    12    99    94   am
    13   104   103    1
    14   104   106   ar
    15    30    29    1
    16    26    29    1
    17    94    95    2
    18    94    93    1
    19    32    33    1
    20    33    36    1
    21    33    34    1
    22    47    46   ar
    23    93    92    1
    24    93    96    1
    25    29    31    1
    26    97    96    1
    27    46    48   ar
    28    46    45    1
    29    34    40   am
    30    34    35    2
    31    40    41    1
    32    96    98    1
    33    45    44    1
    34    44    41    1
    35    23    22    2
    36    41    42    1
    37    22    21    1
    38    43    42    2
    39    19    17    1
    40    42    49   am
    41    20    21    1
    42    21    24    1
    43    49    50    1
    44    17    18    1
    45    17    14    1
    46    14    13    1
    47    14    15    1
    48    77    78    2
    49    77    76    1
    50    84    85    1
    51    89    88    1
    52    89    90    1
    53    50    51    1
    54    50    53    1
    55    15    16    2
    56    88    85    1
    57    91    90    1
    58    87    86    2
    59    79    76    1
    60    79    80    1
    61    51    52    2
    62    51    61   am
    63    75    76    1
    64    85    86    1
    65    65    62    1
    66    53    54    1
    67    82    81   ar
    68    61    62    1
    69    12    11    2
    70    81    83   ar
    71    81    80    1
    72    62    63    1
    73    11    10    1
    74    54    55   ar
    75    54    56   ar
    76    55    57   ar
    77     7     6    1
    78    10     9    1
    79     9     3   am
    80    74    72   ar
    81    63    64    2
    82    71    72    1
    83    71    70    1
    84     5     6    1
    85     5     2    1
    86    72    73   ar
    87    56    58   ar
    88     6     8    1
    89    57    59   ar
    90     3     2    1
    91     3     4    2
    92    70    67    1
    93     1     2    1
    94    67    68    1
    95    67    66    1
    96   115   117   ar
    97   115   113   ar
    98   117   116   ar
    99    68    69    2
   100    58    59   ar
   101    59    60    1
   102   113   112   ar
   103   116   114   ar
   104   112   114   ar
   105   112   111    1
   106   111   108    1
   107   108   107    1
   108   108   109    1
   109   109   110    2
