@<TRIPOS>MOLECULE
tmp/2uw4A00.pdb
 134 125 0 0 0
SMALL
GASTEIGER

@<TRIPOS>ATOM
      1  N          8.8920   15.0010    8.1030 N.3    36  LEU36      -0.1231
      2  CA         8.7700   13.5560    8.3320 C.3    36  LEU36       0.1693
      3  C         10.0040   12.7540    7.8730 C.2    36  LEU36       0.2592
      4  O         10.1090   11.5530    8.1370 O.2    36  LEU36      -0.2718
      5  CB         7.5450   13.0200    7.5800 C.3    36  LEU36       0.0284
      6  CG         6.2180   13.7600    7.7760 C.3    36  LEU36       0.0019
      7  CD1        5.1170   13.1260    6.9240 C.3    36  LEU36       0.0001
      8  CD2        5.8420   13.7580    9.2440 C.3    36  LEU36       0.0001
      9  N         10.9180   13.4110    7.1680 N.am   37  GLY37      -0.1957
     10  CA        12.0730   12.7390    6.5960 C.3    37  GLY37       0.1869
     11  C         12.9090   13.7110    5.7960 C.2    37  GLY37       0.2309
     12  O         12.3870   14.6880    5.2450 O.2    37  GLY37      -0.2863
     13  N         10.6500   15.5720    3.1690 N.3    43  VAL43      -0.1245
     14  CA         9.1980   15.3780    3.1700 C.3    43  VAL43       0.1561
     15  C          8.6010   16.0020    4.4340 C.2    43  VAL43       0.2260
     16  O          9.1070   15.7830    5.5450 O.2    43  VAL43      -0.2867
     17  CB         8.8190   13.8830    3.0870 C.3    43  VAL43       0.0252
     18  CG1        7.3080   13.7050    3.1440 C.3    43  VAL43       0.0019
     19  CG2        9.3760   13.2600    1.8040 C.3    43  VAL43       0.0019
     20  N          1.3660   14.6010    2.7860 N.3    56  ALA56      -0.1245
     21  CA         2.8210   14.6150    2.8700 C.3    56  ALA56       0.1562
     22  C          3.3610   15.2810    1.6030 C.2    56  ALA56       0.2260
     23  O          3.0400   14.8600    0.4820 O.2    56  ALA56      -0.2867
     24  CB         3.3510   13.2160    2.9990 C.3    56  ALA56       0.0290
     25  N          6.6510   16.3210   -0.5260 N.3    58  LYS58      -0.1245
     26  CA         8.0730   16.1890   -0.8680 C.3    58  LYS58       0.1561
     27  C          8.5750   17.4650   -1.5090 C.2    58  LYS58       0.2260
     28  O          7.9930   17.9450   -2.4770 O.2    58  LYS58      -0.2867
     29  CB         8.2720   15.0240   -1.8340 C.3    58  LYS58       0.0271
     30  CG         9.7170   14.7630   -2.2320 C.3    58  LYS58       0.0035
     31  CD         9.9260   13.2810   -2.4700 C.3    58  LYS58       0.0206
     32  CE        11.1700   12.9900   -3.2760 C.3    58  LYS58       0.1093
     33  NZ        11.2740   11.5170   -3.4650 N.3    58  LYS58      -0.1314
     34  N          1.5760    5.4750   -2.6390 N.3    90  THR90      -0.1218
     35  CA         1.2570    6.8180   -2.1650 C.3    90  THR90       0.1862
     36  C          0.8250    7.6540   -3.3600 C.2    90  THR90       0.2287
     37  O          1.6010    7.8680   -4.2960 O.2    90  THR90      -0.2866
     38  CB         2.4500    7.4940   -1.4630 C.3    90  THR90       0.1770
     39  OG1        3.5380    7.6540   -2.3880 O.3    90  THR90      -0.2211
     40  CG2        2.9080    6.6600   -0.2760 C.3    90  THR90       0.0375
     41  N          1.3790   14.2600   -1.6220 N.3   106  MET106     -0.1230
     42  CA         0.8680   12.9070   -1.5980 C.3   106  MET106      0.1702
     43  C          0.0270   12.6370   -0.3660 C.2   106  MET106      0.2592
     44  O          0.1080   13.3510    0.6320 O.2   106  MET106     -0.2718
     45  CB         2.0320   11.9150   -1.5980 C.3   106  MET106      0.0401
     46  CG         2.5860   11.6360   -2.9760 C.3   106  MET106      0.0596
     47  SD         4.3710   11.6060   -2.9700 S.3   106  MET106     -0.1393
     48  CE         4.6910   10.3140   -1.8000 C.3   106  MET106      0.0692
     49  N         -0.7620   11.5750   -0.4630 N.am  107  GLU107     -0.1966
     50  CA        -1.5300   11.0340    0.6490 C.3   107  GLU107      0.1733
     51  C         -0.6380   10.7900    1.8690 C.2   107  GLU107      0.2616
     52  O          0.4360   10.2140    1.7280 O.2   107  GLU107     -0.2715
     53  CB        -2.1750    9.7270    0.1940 C.3   107  GLU107      0.0429
     54  CG        -2.9430    8.9750    1.2490 C.3   107  GLU107      0.1163
     55  CD        -3.5970    7.7300    0.6930 C.2   107  GLU107      0.3649
     56  OE1       -3.3180    7.3850   -0.4790 O.co2 107  GLU107     -0.2457
     57  OE2       -4.3810    7.0930    1.4310 O.co2 107  GLU107     -0.2457
     58  N         -1.1040   11.2180    3.0480 N.am  108  TYR108     -0.1960
     59  CA        -0.3520   11.1130    4.3050 C.3   108  TYR108      0.1771
     60  C         -0.6580    9.8210    5.0700 C.2   108  TYR108      0.2619
     61  O         -1.8220    9.4890    5.3130 O.2   108  TYR108     -0.2715
     62  CB        -0.6440   12.3140    5.2070 C.3   108  TYR108      0.0574
     63  CG        -0.0280   12.2170    6.5830 C.ar  108  TYR108     -0.0198
     64  CD1        1.3360   11.9930    6.7360 C.ar  108  TYR108     -0.0009
     65  CD2       -0.8060   12.3470    7.7360 C.ar  108  TYR108     -0.0009
     66  CE1        1.9090   11.8980    7.9820 C.ar  108  TYR108      0.0417
     67  CE2       -0.2340   12.2520    8.9980 C.ar  108  TYR108      0.0417
     68  CZ         1.1280   12.0320    9.1100 C.ar  108  TYR108      0.1957
     69  OH         1.7290   11.9340   10.3380 O.3   108  TYR108     -0.2866
     70  N          0.4070    9.1180    5.4540 N.am  109  ALA109     -0.1977
     71  CA         0.3260    7.8400    6.1520 C.3   109  ALA109      0.1597
     72  C          0.8480    8.0300    7.5730 C.2   109  ALA109      0.2287
     73  O          2.0560    8.0030    7.7960 O.2   109  ALA109     -0.2864
     74  CB         1.1470    6.7950    5.4200 C.3   109  ALA109      0.0319
     75  N          7.0800    4.9210    9.1390 N.3   113  GLU113     -0.1245
     76  CA         7.8260    3.9640    8.3080 C.3   113  GLU113      0.1567
     77  C          7.8400    2.5760    8.9520 C.2   113  GLU113      0.2260
     78  O          7.9070    2.4580   10.1770 O.2   113  GLU113     -0.2867
     79  CB         9.2830    4.4160    8.1340 C.3   113  GLU113      0.0388
     80  CG         9.4810    5.7220    7.3920 C.3   113  GLU113      0.1160
     81  CD        10.9310    6.1690    7.3930 C.2   113  GLU113      0.3649
     82  OE1       11.7940    5.3960    7.8690 O.co2 113  GLU113     -0.2457
     83  OE2       11.2050    7.3040    6.9500 O.co2 113  GLU113     -0.2457
     84  N         12.5580    1.5800    5.0250 N.3   156  GLU156     -0.1231
     85  CA        12.5610    3.0460    5.0770 C.3   156  GLU156      0.1699
     86  C         11.6090    3.6900    4.0720 C.2   156  GLU156      0.2592
     87  O         11.2530    4.8570    4.2280 O.2   156  GLU156     -0.2718
     88  CB        13.9690    3.6080    4.8120 C.3   156  GLU156      0.0402
     89  CG        15.0330    3.2830    5.8660 C.3   156  GLU156      0.1161
     90  CD        15.8060    2.0160    5.5770 C.2   156  GLU156      0.3649
     91  OE1       15.1930    1.0140    5.1710 O.co2 156  GLU156     -0.2457
     92  OE2       17.0340    2.0130    5.7760 O.co2 156  GLU156     -0.2457
     93  N         11.2300    2.9540    3.0310 N.am  157  ASN157     -0.1974
     94  CA        10.3720    3.4760    1.9680 C.3   157  ASN157      0.1688
     95  C          8.9890    2.8230    1.9500 C.2   157  ASN157      0.2292
     96  O          8.3220    2.8410    0.9270 O.2   157  ASN157     -0.2864
     97  CB        11.0450    3.2880    0.5990 C.3   157  ASN157      0.1181
     98  CG        12.1950    4.2540    0.3680 C.2   157  ASN157      0.2629
     99  OD1       12.3520    5.2270    1.0940 O.2   157  ASN157     -0.2716
    100  ND2       13.0050    3.9840   -0.6600 N.am  157  ASN157     -0.0877
    101  N          5.4960    3.0170    4.1110 N.3   159  MET159     -0.1245
    102  CA         4.7160    3.6950    5.1450 C.3   159  MET159      0.1570
    103  C          3.5370    2.8080    5.5520 C.2   159  MET159      0.2261
    104  O          2.9920    2.0910    4.7170 O.2   159  MET159     -0.2867
    105  CB         4.2000    5.0370    4.6220 C.3   159  MET159      0.0387
    106  CG         5.2770    5.9340    3.9960 C.3   159  MET159      0.0595
    107  SD         6.6760    6.2400    5.0890 S.3   159  MET159     -0.1393
    108  CE         5.8510    6.9990    6.4580 C.3   159  MET159      0.0692
    109  N          6.5020    4.1140   -1.1340 N.3   169  THR169     -0.1203
    110  CA         6.8060    5.5050   -1.4550 C.3   169  THR169      0.1994
    111  C          8.2400    5.6480   -1.9810 C.2   169  THR169      0.2617
    112  O          8.9670    4.6710   -2.0810 O.2   169  THR169     -0.2717
    113  CB         6.5520    6.4230   -0.2330 C.3   169  THR169      0.1784
    114  OG1        6.6590    7.8010   -0.6300 O.3   169  THR169     -0.2211
    115  CG2        7.5230    6.1160    0.8940 C.3   169  THR169      0.0376
    116  N          8.6090    6.8770   -2.3240 N.am  170  ASP170     -0.1973
    117  CA         9.9010    7.2230   -2.9420 C.3   170  ASP170      0.1709
    118  C         10.1170    6.5710   -4.3120 C.2   170  ASP170      0.2293
    119  O         10.7250    5.4980   -4.4210 O.2   170  ASP170     -0.2864
    120  CB        11.0880    6.9320   -2.0130 C.3   170  ASP170      0.1436
    121  CG        12.3620    7.6740   -2.4460 C.2   170  ASP170      0.3671
    122  OD1       13.3380    7.6970   -1.6710 O.co2 170  ASP170     -0.2456
    123  OD2       12.3740    8.2600   -3.5500 O.co2 170  ASP170     -0.2456
    124  N          6.4440    9.1540   13.8080 N.3   312  PHE312     -0.1241
    125  CA         7.5720    9.6570   13.0370 C.3   312  PHE312      0.1605
    126  C          8.6320   10.2240   13.9660 C.2   312  PHE312      0.2264
    127  O          8.3140   10.7470   15.0350 O.2   312  PHE312     -0.2867
    128  CB         7.1250   10.7580   12.0730 C.3   312  PHE312      0.0534
    129  CG         6.3590   10.2540   10.8980 C.ar  312  PHE312     -0.0203
    130  CD1        7.0150    9.9360    9.7170 C.ar  312  PHE312     -0.0042
    131  CD2        4.9830   10.0800   10.9700 C.ar  312  PHE312     -0.0042
    132  CE1        6.3160    9.4610    8.6250 C.ar  312  PHE312     -0.0003
    133  CE2        4.2720    9.6060    9.8770 C.ar  312  PHE312     -0.0003
    134  CZ         4.9420    9.2890    8.7020 C.ar  312  PHE312     -0.0000
@<TRIPOS>BOND
     1   119   118    2
     2   118   117    1
     3    37    36    2
     4   123   121   ar
     5    33    32    1
     6    36    35    1
     7    32    31    1
     8    46    47    1
     9    46    45    1
    10    47    48    1
    11   117   116    1
    12   117   120    1
    13    34    35    1
    14    28    27    2
    15    31    30    1
    16   121   120    1
    17   121   122   ar
    18    39    38    1
    19   116   111   am
    20    30    29    1
    21    35    38    1
    22   112   111    2
    23   111   110    1
    24    29    26    1
    25    41    42    1
    26    45    42    1
    27    42    43    1
    28    27    26    1
    29    38    40    1
    30   110   109    1
    31   110   113    1
    32    26    25    1
    33   100    98   am
    34   114   113    1
    35    56    55   ar
    36    49    43   am
    37    49    50    1
    38    43    44    2
    39   113   115    1
    40    53    50    1
    41    53    54    1
    42    98    97    1
    43    98    99    2
    44    23    22    2
    45    97    94    1
    46    50    51    1
    47    55    54    1
    48    55    57   ar
    49    96    95    2
    50    22    21    1
    51    52    51    2
    52    19    17    1
    53    51    58   am
    54    95    94    1
    55    94    93    1
    56    20    21    1
    57    21    24    1
    58    93    86   am
    59    58    59    1
    60    17    18    1
    61    17    14    1
    62    13    14    1
    63    14    15    1
    64   106   105    1
    65   106   107    1
    66    86    87    2
    67    86    85    1
    68   101   102    1
    69    59    60    1
    70    59    62    1
    71    15    16    2
    72   105   102    1
    73   104   103    2
    74    88    85    1
    75    88    89    1
    76    84    85    1
    77    60    61    2
    78    60    70   am
    79   107   108    1
    80   102   103    1
    81    91    90   ar
    82    62    63    1
    83    12    11    2
    84    74    71    1
    85    70    71    1
    86    90    92   ar
    87    90    89    1
    88    11    10    1
    89    71    72    1
    90    63    64   ar
    91    63    65   ar
    92    10     9    1
    93    64    66   ar
    94     7     6    1
    95    83    81   ar
    96     9     3   am
    97    80    81    1
    98    80    79    1
    99    81    82   ar
   100    72    73    2
   101     5     6    1
   102     5     2    1
   103    65    67   ar
   104     6     8    1
   105     3     4    2
   106     3     2    1
   107    66    68   ar
   108     1     2    1
   109    79    76    1
   110    76    77    1
   111    76    75    1
   112   132   134   ar
   113   132   130   ar
   114   134   133   ar
   115    77    78    2
   116    67    68   ar
   117    68    69    1
   118   130   129   ar
   119   133   131   ar
   120   129   131   ar
   121   129   128    1
   122   128   125    1
   123   125   124    1
   124   125   126    1
   125   126   127    2
