@<TRIPOS>MOLECULE
tmp/2uw7A00.pdb
 200 190 0 0 0
SMALL
GASTEIGER

@<TRIPOS>ATOM
      1  N          8.5490   14.9370    8.2540 N.3    36  LEU36      -0.1231
      2  CA         8.5530   13.4990    8.4840 C.3    36  LEU36       0.1693
      3  C          9.8760   12.8420    8.0850 C.2    36  LEU36       0.2593
      4  O         10.0900   11.6640    8.3640 O.2    36  LEU36      -0.2718
      5  CB         7.4110   12.8380    7.7060 C.3    36  LEU36       0.0284
      6  CG         6.0060   13.3920    7.9390 C.3    36  LEU36       0.0019
      7  CD1        4.9820   12.5110    7.2620 C.3    36  LEU36       0.0001
      8  CD2        5.6930   13.5230    9.4260 C.3    36  LEU36       0.0001
      9  N         10.7570   13.5850    7.4270 N.am   37  GLY37      -0.1942
     10  CA        12.0600   13.0490    7.0700 C.3    37  GLY37       0.2014
     11  C         12.8240   13.9030    6.0840 C.2    37  GLY37       0.2640
     12  O         12.3080   14.8990    5.5790 O.2    37  GLY37      -0.2714
     13  N         14.0520   13.4810    5.8040 N.am   38  THR38      -0.1936
     14  CA        14.9900   14.2340    4.9820 C.3    38  THR38       0.2028
     15  C         15.5440   13.3700    3.8430 C.2    38  THR38       0.2642
     16  O         15.5920   12.1370    3.9440 O.2    38  THR38      -0.2714
     17  CB        16.1660   14.7450    5.8380 C.3    38  THR38       0.1808
     18  OG1       15.6660   15.6220    6.8530 O.3    38  THR38      -0.2208
     19  CG2       17.1920   15.5020    4.9810 C.3    38  THR38       0.0379
     20  N         15.9320   14.0390    2.7570 N.am   39  GLY39      -0.1954
     21  CA        16.6840   13.4340    1.6560 C.3    39  GLY39       0.1869
     22  C         17.8100   14.3720    1.2500 C.2    39  GLY39       0.2309
     23  O         17.8830   15.5010    1.7360 O.2    39  GLY39      -0.2863
     24  N         18.4940   16.0620   -1.4510 N.3    41  PHE41      -0.1227
     25  CA        18.1180   17.2740   -2.1890 C.3    41  PHE41       0.1736
     26  C         16.7130   17.7600   -1.8170 C.2    41  PHE41       0.2596
     27  O         16.1630   18.6450   -2.4680 O.2    41  PHE41      -0.2718
     28  CB        18.2590   17.0540   -3.6990 C.3    41  PHE41       0.0547
     29  CG        17.7170   15.7340   -4.1860 C.ar   41  PHE41      -0.0202
     30  CD1       18.5160   14.6020   -4.1960 C.ar   41  PHE41      -0.0042
     31  CD2       16.4180   15.6340   -4.6460 C.ar   41  PHE41      -0.0042
     32  CE1       18.0280   13.3910   -4.6470 C.ar   41  PHE41      -0.0003
     33  CE2       15.9160   14.4280   -5.0930 C.ar   41  PHE41      -0.0003
     34  CZ        16.7240   13.3030   -5.0970 C.ar   41  PHE41      -0.0000
     35  N         16.1570   17.2150   -0.7360 N.am   42  GLY42      -0.1942
     36  CA        14.8820   17.6870   -0.2430 C.3    42  GLY42       0.2014
     37  C         14.4000   16.9870    1.0070 C.2    42  GLY42       0.2639
     38  O         15.1860   16.4230    1.7600 O.2    42  GLY42      -0.2714
     39  N         13.0870   17.0120    1.2110 N.am   43  ARG43      -0.1963
     40  CA        12.4850   16.4850    2.4270 C.3    43  ARG43       0.1729
     41  C         11.0100   16.1890    2.1960 C.2    43  ARG43       0.2616
     42  O         10.4820   16.4630    1.1120 O.2    43  ARG43      -0.2715
     43  CB        12.6680   17.4880    3.5680 C.3    43  ARG43       0.0348
     44  CG        12.4220   18.9520    3.1760 C.3    43  ARG43       0.0492
     45  CD        13.3270   19.8890    3.9670 C.3    43  ARG43       0.2205
     46  NE        12.8070   20.1200    5.3130 N.pl3  43  ARG43      -0.0865
     47  CZ        13.5410   20.3680    6.4000 C.cat  43  ARG43       0.5346
     48  NH1       14.8710   20.4130    6.3510 N.pl3  43  ARG43       0.1354
     49  NH2       12.9290   20.5600    7.5620 N.pl3  43  ARG43       0.1354
     50  N         10.3640   15.6080    3.2060 N.am   44  VAL44      -0.1977
     51  CA         8.9260   15.3410    3.1770 C.3    44  VAL44       0.1596
     52  C          8.2860   15.9490    4.4260 C.2    44  VAL44       0.2287
     53  O          8.7660   15.7110    5.5340 O.2    44  VAL44      -0.2864
     54  CB         8.6330   13.8330    3.1260 C.3    44  VAL44       0.0276
     55  CG1        7.1400   13.5580    3.3780 C.3    44  VAL44       0.0022
     56  CG2        9.0810   13.2310    1.7760 C.3    44  VAL44       0.0022
     57  N          1.1500   14.2030    2.5920 N.3    57  ALA57      -0.1245
     58  CA         2.6140   14.1920    2.6280 C.3    57  ALA57       0.1562
     59  C          3.1510   14.9470    1.4130 C.2    57  ALA57       0.2260
     60  O          2.8270   14.5970    0.2740 O.2    57  ALA57      -0.2867
     61  CB         3.1210   12.7710    2.6280 C.3    57  ALA57       0.0290
     62  N          6.4860   16.1160   -0.5910 N.3    59  LYS59      -0.1245
     63  CA         7.9280   16.0250   -0.8900 C.3    59  LYS59       0.1561
     64  C          8.4070   17.3180   -1.5290 C.2    59  LYS59       0.2260
     65  O          7.9090   17.7110   -2.5780 O.2    59  LYS59      -0.2867
     66  CB         8.1820   14.8640   -1.8490 C.3    59  LYS59       0.0271
     67  CG         9.6310   14.5950   -2.2210 C.3    59  LYS59       0.0035
     68  CD         9.7290   13.1490   -2.7550 C.3    59  LYS59       0.0206
     69  CE        11.0930   12.8090   -3.2690 C.3    59  LYS59       0.1093
     70  NZ        11.2230   11.3500   -3.5110 N.3    59  LYS59      -0.1314
     71  N         11.5620   19.2940   -3.1260 N.3    61  LEU61      -0.1245
     72  CA        12.8960   19.1030   -3.7190 C.3    61  LEU61       0.1561
     73  C         13.5220   20.4380   -4.1230 C.2    61  LEU61       0.2260
     74  O         12.8760   21.2660   -4.7600 O.2    61  LEU61      -0.2867
     75  CB        12.7960   18.1960   -4.9470 C.3    61  LEU61       0.0270
     76  CG        12.8710   16.6700   -4.7850 C.3    61  LEU61       0.0019
     77  CD1       12.6730   16.1760   -3.3500 C.3    61  LEU61       0.0001
     78  CD2       11.8900   16.0040   -5.7340 C.3    61  LEU61       0.0001
     79  N          1.7670    5.2180   -2.7370 N.3    91  THR91      -0.1218
     80  CA         1.3950    6.6290   -2.5760 C.3    91  THR91       0.1862
     81  C          1.5310    7.3080   -3.9360 C.2    91  THR91       0.2287
     82  O          2.6380    7.6420   -4.3570 O.2    91  THR91      -0.2866
     83  CB         2.3230    7.3790   -1.5840 C.3    91  THR91       0.1770
     84  OG1        3.6100    7.5900   -2.1950 O.3    91  THR91      -0.2211
     85  CG2        2.5000    6.6000   -0.2660 C.3    91  THR91       0.0375
     86  N          1.2510   13.7140   -1.8050 N.3   107  MET107     -0.1230
     87  CA         0.6810   12.3690   -1.7770 C.3   107  MET107      0.1702
     88  C         -0.1080   12.1060   -0.5000 C.2   107  MET107      0.2592
     89  O         -0.0150   12.8450    0.4750 O.2   107  MET107     -0.2718
     90  CB         1.7710   11.2990   -1.9600 C.3   107  MET107      0.0401
     91  CG         2.9980   11.4090   -1.0620 C.3   107  MET107      0.0596
     92  SD         4.5010   10.7740   -1.8850 S.3   107  MET107     -0.1393
     93  CE         4.7890   12.0930   -3.0580 C.3   107  MET107      0.0692
     94  N         -0.9040   11.0470   -0.5450 N.am  108  GLU108     -0.1966
     95  CA        -1.7460   10.6240    0.5710 C.3   108  GLU108      0.1733
     96  C         -0.8850   10.3550    1.8130 C.2   108  GLU108      0.2616
     97  O          0.1450    9.6740    1.7250 O.2   108  GLU108     -0.2715
     98  CB        -2.5300    9.3790    0.1420 C.3   108  GLU108      0.0429
     99  CG        -3.4960    8.7760    1.1700 C.3   108  GLU108      0.1163
    100  CD        -4.1750    7.5070    0.6440 C.2   108  GLU108      0.3649
    101  OE1       -4.2320    7.3380   -0.5930 O.co2 108  GLU108     -0.2457
    102  OE2       -4.6330    6.6730    1.4620 O.co2 108  GLU108     -0.2457
    103  N         -1.3090   10.8930    2.9590 N.am  109  TYR109     -0.1960
    104  CA        -0.5420   10.7880    4.2090 C.3   109  TYR109      0.1771
    105  C         -0.8190    9.4780    4.9500 C.2   109  TYR109      0.2619
    106  O         -1.9790    9.1320    5.2180 O.2   109  TYR109     -0.2715
    107  CB        -0.8370   11.9780    5.1260 C.3   109  TYR109      0.0574
    108  CG        -0.2230   11.8410    6.5000 C.ar  109  TYR109     -0.0198
    109  CD1        1.1490   11.6670    6.6490 C.ar  109  TYR109     -0.0009
    110  CD2       -1.0130   11.8870    7.6560 C.ar  109  TYR109     -0.0009
    111  CE1        1.7180   11.5290    7.8930 C.ar  109  TYR109      0.0417
    112  CE2       -0.4410   11.7690    8.9120 C.ar  109  TYR109      0.0417
    113  CZ         0.9290   11.5850    9.0220 C.ar  109  TYR109      0.1957
    114  OH         1.5220   11.4560   10.2540 O.3   109  TYR109     -0.2866
    115  N          0.2560    8.7640    5.2860 N.am  110  ALA110     -0.1977
    116  CA         0.1660    7.4860    5.9770 C.3   110  ALA110      0.1597
    117  C          0.5400    7.6780    7.4440 C.2   110  ALA110      0.2287
    118  O          1.7280    7.8430    7.7530 O.2   110  ALA110     -0.2864
    119  CB         1.0920    6.4710    5.3250 C.3   110  ALA110      0.0319
    120  N          6.9360    4.6100    9.1920 N.3   114  GLU114     -0.1245
    121  CA         7.6340    3.6360    8.3490 C.3   114  GLU114      0.1567
    122  C          7.6620    2.2460    8.9710 C.2   114  GLU114      0.2260
    123  O          7.8370    2.1180   10.1770 O.2   114  GLU114     -0.2867
    124  CB         9.0840    4.0440    8.1380 C.3   114  GLU114      0.0388
    125  CG         9.3110    5.3670    7.4600 C.3   114  GLU114      0.1160
    126  CD        10.7580    5.8200    7.5960 C.2   114  GLU114      0.3649
    127  OE1       11.5910    5.0380    8.1000 O.co2 114  GLU114     -0.2457
    128  OE2       11.0640    6.9550    7.2140 O.co2 114  GLU114     -0.2457
    129  N         12.8800   -1.0950    0.3940 N.3   155  LYS155     -0.1245
    130  CA        13.4390   -1.2230    1.7520 C.3   155  LYS155      0.1561
    131  C         12.3720   -0.8320    2.7700 C.2   155  LYS155      0.2260
    132  O         11.4100   -0.1830    2.4110 O.2   155  LYS155     -0.2867
    133  CB        14.6850   -0.3420    1.9250 C.3   155  LYS155      0.0271
    134  CG        14.4870    1.1070    1.5690 C.3   155  LYS155      0.0035
    135  CD        15.7830    1.8680    1.7410 C.3   155  LYS155      0.0206
    136  CE        15.7020    3.2930    1.2070 C.3   155  LYS155      0.1093
    137  NZ        17.0670    3.9210    1.1110 N.3   155  LYS155     -0.1314
    138  N         12.5100    1.4430    4.9660 N.3   157  GLU157     -0.1231
    139  CA        12.4820    2.9090    5.0530 C.3   157  GLU157      0.1699
    140  C         11.4640    3.5310    4.0920 C.2   157  GLU157      0.2592
    141  O         10.9400    4.6220    4.3530 O.2   157  GLU157     -0.2718
    142  CB        13.8610    3.5030    4.7810 C.3   157  GLU157      0.0402
    143  CG        14.9100    3.2560    5.8790 C.3   157  GLU157      0.1161
    144  CD        15.7420    2.0170    5.6680 C.2   157  GLU157      0.3649
    145  OE1       15.1860    0.9700    5.2820 O.co2 157  GLU157     -0.2457
    146  OE2       16.9590    2.0830    5.9040 O.co2 157  GLU157     -0.2457
    147  N         11.1840    2.8400    2.9870 N.am  158  ASN158     -0.1974
    148  CA        10.2900    3.3700    1.9530 C.3   158  ASN158      0.1688
    149  C          8.8490    2.8400    2.0280 C.2   158  ASN158      0.2292
    150  O          8.0280    3.1900    1.1850 O.2   158  ASN158     -0.2864
    151  CB        10.8910    3.1290    0.5570 C.3   158  ASN158      0.1181
    152  CG        12.0750    4.0510    0.2550 C.2   158  ASN158      0.2629
    153  OD1       12.4050    4.9300    1.0460 O.2   158  ASN158     -0.2716
    154  ND2       12.7100    3.8520   -0.8980 N.am  158  ASN158     -0.0877
    155  N          5.3850    2.7810    4.0620 N.3   160  MET160     -0.1245
    156  CA         4.5890    3.4520    5.0790 C.3   160  MET160      0.1570
    157  C          3.3610    2.6110    5.4630 C.2   160  MET160      0.2261
    158  O          2.6810    2.0460    4.5980 O.2   160  MET160     -0.2867
    159  CB         4.1610    4.8330    4.5870 C.3   160  MET160      0.0387
    160  CG         5.3160    5.7310    4.1570 C.3   160  MET160      0.0595
    161  SD         6.3280    6.2990    5.5420 S.3   160  MET160     -0.1393
    162  CE         7.8640    6.5850    4.6720 C.3   160  MET160      0.0692
    163  N          6.4630    4.1380   -1.0970 N.3   170  THR170     -0.1203
    164  CA         6.6540    5.5500   -1.4180 C.3   170  THR170      0.1994
    165  C          8.1050    5.7980   -1.8450 C.2   170  THR170      0.2617
    166  O          8.9150    4.8920   -1.8100 O.2   170  THR170     -0.2717
    167  CB         6.2120    6.4640   -0.2310 C.3   170  THR170      0.1784
    168  OG1        6.0360    7.8100   -0.6980 O.3   170  THR170     -0.2211
    169  CG2        7.2140    6.4410    0.9340 C.3   170  THR170      0.0376
    170  N          8.3990    7.0230   -2.2610 N.am  171  ASP171     -0.1973
    171  CA         9.7030    7.4320   -2.8020 C.3   171  ASP171      0.1709
    172  C         10.1470    6.6730   -4.0540 C.2   171  ASP171      0.2293
    173  O         10.7580    5.5960   -3.9720 O.2   171  ASP171     -0.2864
    174  CB        10.8020    7.3780   -1.7450 C.3   171  ASP171      0.1436
    175  CG        11.9900    8.2410   -2.1160 C.2   171  ASP171      0.3671
    176  OD1       12.1280    8.5780   -3.3220 O.co2 171  ASP171     -0.2456
    177  OD2       12.7680    8.5950   -1.2060 O.co2 171  ASP171     -0.2456
    178  N          6.1560    8.9460   13.6460 N.3   313  PHE313     -0.1241
    179  CA         7.3170    9.4240   12.8860 C.3   313  PHE313      0.1605
    180  C          8.3020   10.0570   13.8370 C.2   313  PHE313      0.2264
    181  O          7.9190   10.5090   14.9190 O.2   313  PHE313     -0.2867
    182  CB         6.9090   10.4710   11.8440 C.3   313  PHE313      0.0534
    183  CG         6.1790    9.9040   10.6710 C.ar  313  PHE313     -0.0203
    184  CD1        6.8610    9.5610    9.5110 C.ar  313  PHE313     -0.0042
    185  CD2        4.8110    9.6950   10.7270 C.ar  313  PHE313     -0.0042
    186  CE1        6.1880    9.0310    8.4250 C.ar  313  PHE313     -0.0003
    187  CE2        4.1280    9.1510    9.6450 C.ar  313  PHE313     -0.0003
    188  CZ         4.8150    8.8180    8.4940 C.ar  313  PHE313     -0.0000
    189  N         12.5210   15.6600   13.2920 N.3   316  TYR316     -0.1241
    190  CA        13.6300   16.2130   12.5060 C.3   316  TYR316      0.1605
    191  C         13.6050   17.7190   12.6620 C.2   316  TYR316      0.2264
    192  O         12.5400   18.3010   12.8530 O.2   316  TYR316     -0.2867
    193  CB        13.4670   15.8860   11.0130 C.3   316  TYR316      0.0534
    194  CG        13.5230   14.4100   10.6790 C.ar  316  TYR316     -0.0201
    195  CD1       12.4080   13.6030   10.8310 C.ar  316  TYR316     -0.0009
    196  CD2       14.6950   13.8290   10.2120 C.ar  316  TYR316     -0.0009
    197  CE1       12.4560   12.2420   10.5280 C.ar  316  TYR316      0.0417
    198  CE2       14.7520   12.4770    9.9010 C.ar  316  TYR316      0.0417
    199  CZ        13.6310   11.6890   10.0640 C.ar  316  TYR316      0.1957
    200  OH        13.6830   10.3500    9.7510 O.3   316  TYR316     -0.2866
@<TRIPOS>BOND
     1    78    76    1
     2    34    33   ar
     3    34    32   ar
     4    33    31   ar
     5    75    76    1
     6    75    72    1
     7    76    77    1
     8    74    73    2
     9    32    30   ar
    10    31    29   ar
    11    82    81    2
    12    30    29   ar
    13    29    28    1
    14    73    72    1
    15   172   173    2
    16   172   171    1
    17    81    80    1
    18    72    71    1
    19    28    25    1
    20    70    69    1
    21   176   175   ar
    22    69    68    1
    23    93    92    1
    24   171   170    1
    25   171   174    1
    26    68    67    1
    27    79    80    1
    28    65    64    2
    29    80    83    1
    30    27    26    2
    31   170   165   am
    32    67    66    1
    33    84    83    1
    34    25    26    1
    35    25    24    1
    36   175   174    1
    37   175   177   ar
    38    90    87    1
    39    90    91    1
    40    92    91    1
    41    66    63    1
    42   165   166    2
    43   165   164    1
    44    26    35   am
    45    86    87    1
    46    87    88    1
    47    83    85    1
    48    64    63    1
    49   164   163    1
    50   164   167    1
    51   154   152   am
    52    63    62    1
    53    35    36    1
    54   168   167    1
    55   101   100   ar
    56    94    88   am
    57    94    95    1
    58    88    89    2
    59    36    37    1
    60   167   169    1
    61    98    95    1
    62    98    99    1
    63   152   151    1
    64   152   153    2
    65    60    59    2
    66   129   130    1
    67   151   148    1
    68    95    96    1
    69   100    99    1
    70   100   102   ar
    71    37    39   am
    72    37    38    2
    73   137   136    1
    74    42    41    2
    75   150   149    2
    76   136   135    1
    77    39    40    1
    78    22    21    1
    79    22    23    2
    80    59    58    1
    81   134   135    1
    82   134   133    1
    83    21    20    1
    84    97    96    2
    85   130   133    1
    86   130   131    1
    87    56    54    1
    88    96   103   am
    89   148   149    1
    90   148   147    1
    91    41    40    1
    92    41    50   am
    93   132   131    2
    94    40    43    1
    95    57    58    1
    96    58    61    1
    97    20    15   am
    98   103   104    1
    99   147   140   am
   100    54    51    1
   101    54    55    1
   102    44    43    1
   103    44    45    1
   104    51    50    1
   105    51    52    1
   106    15    16    2
   107    15    14    1
   108    45    46    1
   109   155   156    1
   110   140   141    2
   111   140   139    1
   112   160   159    1
   113   160   161    1
   114   104   105    1
   115   104   107    1
   116    52    53    2
   117   159   156    1
   118   158   157    2
   119   162   161    1
   120   142   139    1
   121   142   143    1
   122   105   106    2
   123   105   115   am
   124   138   139    1
   125    19    17    1
   126    14    13    1
   127    14    17    1
   128   156   157    1
   129   107   108    1
   130   145   144   ar
   131   115   116    1
   132    46    47    2
   133   119   116    1
   134    12    11    2
   135   144   143    1
   136   144   146   ar
   137    13    11   am
   138    17    18    1
   139   116   117    1
   140    11    10    1
   141    48    47    1
   142    47    49    1
   143   108   109   ar
   144   108   110   ar
   145   109   111   ar
   146    10     9    1
   147   128   126   ar
   148     7     6    1
   149     9     3   am
   150   117   118    2
   151   125   126    1
   152   125   124    1
   153   126   127   ar
   154   110   112   ar
   155     5     6    1
   156     5     2    1
   157   111   113   ar
   158     6     8    1
   159     3     4    2
   160     3     2    1
   161   124   121    1
   162     1     2    1
   163   121   122    1
   164   121   120    1
   165   186   188   ar
   166   186   184   ar
   167   188   187   ar
   168   112   113   ar
   169   122   123    2
   170   113   114    1
   171   184   183   ar
   172   187   185   ar
   173   200   199    1
   174   198   199   ar
   175   198   196   ar
   176   199   197   ar
   177   196   194   ar
   178   197   195   ar
   179   183   185   ar
   180   183   182    1
   181   194   195   ar
   182   194   193    1
   183   193   190    1
   184   182   179    1
   185   190   191    1
   186   190   189    1
   187   191   192    2
   188   179   178    1
   189   179   180    1
   190   180   181    2
