@<TRIPOS>MOLECULE
tmp/2uw8A00.pdb
 164 157 0 0 0
SMALL
GASTEIGER

@<TRIPOS>ATOM
      1  N          9.2360   15.4960    8.1660 N.3    36  LEU36      -0.1231
      2  CA         9.0440   14.0750    8.4600 C.3    36  LEU36       0.1693
      3  C         10.1920   13.2160    7.9560 C.2    36  LEU36       0.2593
      4  O         10.2100   12.0050    8.1940 O.2    36  LEU36      -0.2718
      5  CB         7.7530   13.5810    7.8160 C.3    36  LEU36       0.0284
      6  CG         6.4710   14.2550    8.2940 C.3    36  LEU36       0.0019
      7  CD1        5.3260   13.8500    7.3850 C.3    36  LEU36       0.0001
      8  CD2        6.1810   13.8990    9.7390 C.3    36  LEU36       0.0001
      9  N         11.1240   13.8320    7.2340 N.am   37  GLY37      -0.1942
     10  CA        12.2870   13.1340    6.7120 C.3    37  GLY37       0.2014
     11  C         13.1760   14.0670    5.9160 C.2    37  GLY37       0.2640
     12  O         12.7060   15.0740    5.3820 O.2    37  GLY37      -0.2714
     13  N         14.4630   13.7330    5.8510 N.am   38  THR38      -0.1936
     14  CA        15.4500   14.5200    5.1080 C.3    38  THR38       0.2028
     15  C         16.3580   13.6220    4.2660 C.2    38  THR38       0.2642
     16  O         16.1560   12.4040    4.1810 O.2    38  THR38      -0.2714
     17  CB        16.3550   15.3220    6.0550 C.3    38  THR38       0.1808
     18  OG1       17.1750   14.4130    6.7990 O.3    38  THR38      -0.2208
     19  CG2       15.5340   16.1790    7.0080 C.3    38  THR38       0.0379
     20  N         17.3510   14.2440    3.6360 N.am   39  GLY39      -0.1954
     21  CA        18.4190   13.5270    2.9450 C.3    39  GLY39       0.1869
     22  C         19.1400   14.4310    1.9680 C.2    39  GLY39       0.2309
     23  O         18.6750   15.5340    1.6770 O.2    39  GLY39      -0.2863
     24  N         19.1790   13.5310   -0.9560 N.3    41  PHE41      -0.1227
     25  CA        18.1640   13.3890   -1.9990 C.3    41  PHE41       0.1736
     26  C         16.8650   14.1870   -1.7540 C.2    41  PHE41       0.2596
     27  O         15.9130   14.0530   -2.5260 O.2    41  PHE41      -0.2718
     28  CB        17.8450   11.9020   -2.2240 C.3    41  PHE41       0.0547
     29  CG        18.9230   11.1550   -2.9700 C.ar   41  PHE41      -0.0202
     30  CD1       19.0120   11.2410   -4.3570 C.ar   41  PHE41      -0.0042
     31  CD2       19.8440   10.3640   -2.2910 C.ar   41  PHE41      -0.0042
     32  CE1       20.0030   10.5500   -5.0530 C.ar   41  PHE41      -0.0003
     33  CE2       20.8380    9.6720   -2.9790 C.ar   41  PHE41      -0.0003
     34  CZ        20.9170    9.7670   -4.3640 C.ar   41  PHE41      -0.0000
     35  N         16.8230   15.0080   -0.7020 N.am   42  GLY42      -0.1942
     36  CA        15.6990   15.9320   -0.4700 C.3    42  GLY42       0.2014
     37  C         15.1370   15.8790    0.9420 C.2    42  GLY42       0.2639
     38  O         15.7760   15.3490    1.8520 O.2    42  GLY42      -0.2714
     39  N         13.9350   16.4280    1.1220 N.am   43  ARG43      -0.1963
     40  CA        13.2250   16.3690    2.4120 C.3    43  ARG43       0.1729
     41  C         11.7120   16.2930    2.2240 C.2    43  ARG43       0.2616
     42  O         11.1910   16.6370    1.1590 O.2    43  ARG43      -0.2715
     43  CB        13.5780   17.5760    3.2700 C.3    43  ARG43       0.0348
     44  CG        13.4350   18.8740    2.5330 C.3    43  ARG43       0.0492
     45  CD        13.8780   20.0530    3.3580 C.3    43  ARG43       0.2205
     46  NE        13.8720   21.2550    2.5270 N.pl3  43  ARG43      -0.0865
     47  CZ        13.7000   22.4910    2.9770 C.cat  43  ARG43       0.5346
     48  NH1       13.5000   22.7320    4.2650 N.pl3  43  ARG43       0.1354
     49  NH2       13.7130   23.4970    2.1140 N.pl3  43  ARG43       0.1354
     50  N         11.0170   15.8310    3.2610 N.am   44  VAL44      -0.1977
     51  CA         9.5630   15.7360    3.2370 C.3    44  VAL44       0.1596
     52  C          8.9820   16.4220    4.4670 C.2    44  VAL44       0.2287
     53  O          9.4550   16.2080    5.5860 O.2    44  VAL44      -0.2864
     54  CB         9.0860   14.2720    3.1790 C.3    44  VAL44       0.0276
     55  CG1        7.5540   14.1920    3.2570 C.3    44  VAL44       0.0022
     56  CG2        9.5780   13.6190    1.9040 C.3    44  VAL44       0.0022
     57  N          2.0080   14.8090    2.8080 N.3    57  ALA57      -0.1245
     58  CA         3.4640   14.7720    2.8460 C.3    57  ALA57       0.1562
     59  C          3.9640   15.4580    1.5900 C.2    57  ALA57       0.2260
     60  O          3.7380   14.9670    0.4780 O.2    57  ALA57      -0.2867
     61  CB         3.9710   13.3290    2.9050 C.3    57  ALA57       0.0290
     62  N          7.0700   16.4580   -0.5380 N.3    59  LYS59      -0.1245
     63  CA         8.4900   16.2910   -0.8700 C.3    59  LYS59       0.1561
     64  C          9.0040   17.5730   -1.5150 C.2    59  LYS59       0.2260
     65  O          8.3950   18.0770   -2.4600 O.2    59  LYS59      -0.2867
     66  CB         8.6660   15.1090   -1.8320 C.3    59  LYS59       0.0271
     67  CG        10.0990   14.6290   -2.0290 C.3    59  LYS59       0.0035
     68  CD        10.1010   13.2100   -2.6090 C.3    59  LYS59       0.0206
     69  CE        11.4660   12.7900   -3.1140 C.3    59  LYS59       0.1093
     70  NZ        11.4570   11.3710   -3.5570 N.3    59  LYS59      -0.1314
     71  N          2.2100   14.3880   -1.6610 N.3   107  MET107     -0.1230
     72  CA         1.7260   13.0100   -1.6130 C.3   107  MET107      0.1702
     73  C          0.7090   12.8740   -0.4860 C.2   107  MET107      0.2592
     74  O          0.7070   13.6840    0.4300 O.2   107  MET107     -0.2718
     75  CB         2.8820   12.0500   -1.2990 C.3   107  MET107      0.0401
     76  CG         4.2180   12.3440   -1.9730 C.3   107  MET107      0.0596
     77  SD         4.1160   12.2580   -3.7500 S.3   107  MET107     -0.1393
     78  CE         3.6010   10.5570   -4.0000 C.3   107  MET107      0.0692
     79  N         -0.1200   11.8320   -0.5200 N.am  108  GLU108     -0.1966
     80  CA        -0.9400   11.5110    0.6520 C.3   108  GLU108      0.1733
     81  C         -0.0600   11.1910    1.8700 C.2   108  GLU108      0.2616
     82  O          1.0410   10.6380    1.7430 O.2   108  GLU108     -0.2715
     83  CB        -1.9860   10.4040    0.3980 C.3   108  GLU108      0.0429
     84  CG        -1.6210    9.3310   -0.6020 C.3   108  GLU108      0.1163
     85  CD        -2.6780    8.2360   -0.7300 C.2   108  GLU108      0.3649
     86  OE1       -2.3650    7.1950   -1.3460 O.co2 108  GLU108     -0.2457
     87  OE2       -3.8150    8.4150   -0.2410 O.co2 108  GLU108     -0.2457
     88  N         -0.5520   11.5880    3.0410 N.am  109  TYR109     -0.1960
     89  CA         0.1530   11.4150    4.3050 C.3   109  TYR109      0.1771
     90  C         -0.3080   10.1310    4.9800 C.2   109  TYR109      0.2619
     91  O         -1.5080    9.8970    5.0960 O.2   109  TYR109     -0.2715
     92  CB        -0.1280   12.5990    5.2280 C.3   109  TYR109      0.0574
     93  CG         0.5220   12.4950    6.5930 C.ar  109  TYR109     -0.0198
     94  CD1        1.8950   12.3350    6.7110 C.ar  109  TYR109     -0.0009
     95  CD2       -0.2330   12.5720    7.7640 C.ar  109  TYR109     -0.0009
     96  CE1        2.5030   12.2430    7.9480 C.ar  109  TYR109      0.0417
     97  CE2        0.3730   12.4840    9.0170 C.ar  109  TYR109      0.0417
     98  CZ         1.7430   12.3250    9.0980 C.ar  109  TYR109      0.1957
     99  OH         2.3810   12.2320   10.3150 O.3   109  TYR109     -0.2866
    100  N          0.6500    9.3110    5.4180 N.am  110  ALA110     -0.1977
    101  CA         0.3710    8.1000    6.1790 C.3   110  ALA110      0.1597
    102  C          0.8650    8.3100    7.6130 C.2   110  ALA110      0.2287
    103  O          2.0600    8.1650    7.8880 O.2   110  ALA110     -0.2864
    104  CB         1.0580    6.9060    5.5420 C.3   110  ALA110      0.0319
    105  N          6.7760    4.9370    8.8970 N.3   114  GLU114     -0.1245
    106  CA         7.4870    4.0420    8.0030 C.3   114  GLU114      0.1567
    107  C          7.4950    2.6550    8.6170 C.2   114  GLU114      0.2260
    108  O          7.6280    2.5230    9.8330 O.2   114  GLU114     -0.2867
    109  CB         8.9370    4.5110    7.8160 C.3   114  GLU114      0.0388
    110  CG         9.0960    5.9800    7.4230 C.3   114  GLU114      0.1160
    111  CD        10.5450    6.4260    7.3030 C.2   114  GLU114      0.3649
    112  OE1       11.4650    5.6220    7.5810 O.co2 114  GLU114     -0.2457
    113  OE2       10.7600    7.6010    6.9400 O.co2 114  GLU114     -0.2457
    114  N         12.2370    1.6030    4.8640 N.3   156  GLU156     -0.1231
    115  CA        12.2310    3.0670    4.9200 C.3   156  GLU156      0.1699
    116  C         11.2430    3.6800    3.9210 C.2   156  GLU156      0.2592
    117  O         10.7470    4.7930    4.1310 O.2   156  GLU156     -0.2718
    118  CB        13.6330    3.6230    4.6420 C.3   156  GLU156      0.0402
    119  CG        14.6880    3.3090    5.7100 C.3   156  GLU156      0.1161
    120  CD        15.4590    2.0270    5.4500 C.2   156  GLU156      0.3649
    121  OE1       14.8340    1.0250    5.0470 O.co2 156  GLU156     -0.2457
    122  OE2       16.6900    2.0110    5.6780 O.co2 156  GLU156     -0.2457
    123  N         10.9710    2.9550    2.8380 N.am  157  ASN157     -0.1974
    124  CA        10.1250    3.4400    1.7440 C.3   157  ASN157      0.1688
    125  C          8.7430    2.7850    1.7030 C.2   157  ASN157      0.2292
    126  O          8.0840    2.8070    0.6660 O.2   157  ASN157     -0.2864
    127  CB        10.8390    3.2110    0.3960 C.3   157  ASN157      0.1181
    128  CG        12.0470    4.1160    0.2030 C.2   157  ASN157      0.2629
    129  OD1       12.3040    5.0120    1.0000 O.2   157  ASN157     -0.2716
    130  ND2       12.8070    3.8710   -0.8630 N.am  157  ASN157     -0.0877
    131  N          5.2180    2.9660    3.8290 N.3   159  MET159     -0.1245
    132  CA         4.4610    3.6150    4.8850 C.3   159  MET159      0.1570
    133  C          3.3290    2.6850    5.3020 C.2   159  MET159      0.2261
    134  O          2.8340    1.9130    4.4900 O.2   159  MET159     -0.2867
    135  CB         3.9040    4.9540    4.4040 C.3   159  MET159      0.0387
    136  CG         4.9570    5.9140    3.8440 C.3   159  MET159      0.0595
    137  SD         6.1990    6.4210    5.0610 S.3   159  MET159     -0.1393
    138  CE         5.1450    7.0940    6.3140 C.3   159  MET159      0.0692
    139  N          6.3450    4.3230   -1.2060 N.3   169  THR169     -0.1203
    140  CA         6.6990    5.7010   -1.4740 C.3   169  THR169      0.1994
    141  C          8.1370    5.7840   -2.0090 C.2   169  THR169      0.2617
    142  O          8.8540    4.7780   -2.0640 O.2   169  THR169     -0.2717
    143  CB         6.5210    6.5550   -0.2040 C.3   169  THR169      0.1784
    144  OG1        6.4240    7.9410   -0.5670 O.3   169  THR169     -0.2211
    145  CG2        7.6760    6.3280    0.7780 C.3   169  THR169      0.0376
    146  N          8.5270    6.9880   -2.4150 N.am  170  ASP170     -0.1973
    147  CA         9.8320    7.2730   -3.0170 C.3   170  ASP170      0.1709
    148  C         10.0520    6.5600   -4.3620 C.2   170  ASP170      0.2293
    149  O         10.5490    5.4330   -4.4090 O.2   170  ASP170     -0.2864
    150  CB        10.9780    6.9770   -2.0440 C.3   170  ASP170      0.1436
    151  CG        12.1630    7.9350   -2.2280 C.2   170  ASP170      0.3671
    152  OD1       12.5140    8.2810   -3.3980 O.co2 170  ASP170     -0.2456
    153  OD2       12.7290    8.3470   -1.1870 O.co2 170  ASP170     -0.2456
    154  N          6.6890    9.3830   13.6420 N.3   312  PHE312     -0.1241
    155  CA         7.8830    9.8160   12.9250 C.3   312  PHE312      0.1605
    156  C          8.9070   10.4100   13.8790 C.2   312  PHE312      0.2264
    157  O          8.5540   10.9210   14.9490 O.2   312  PHE312     -0.2867
    158  CB         7.5190   10.8700   11.8800 C.3   312  PHE312      0.0534
    159  CG         6.6430   10.3550   10.7780 C.ar  312  PHE312     -0.0203
    160  CD1        7.1890    9.9570    9.5630 C.ar  312  PHE312     -0.0042
    161  CD2        5.2710   10.2760   10.9480 C.ar  312  PHE312     -0.0042
    162  CE1        6.3750    9.4800    8.5390 C.ar  312  PHE312     -0.0003
    163  CE2        4.4540    9.7990    9.9300 C.ar  312  PHE312     -0.0003
    164  CZ         5.0100    9.4040    8.7240 C.ar  312  PHE312     -0.0000
@<TRIPOS>BOND
     1    32    34   ar
     2    32    30   ar
     3   149   148    2
     4    34    33   ar
     5   148   147    1
     6    30    29   ar
     7    78    77    1
     8    77    76    1
     9    70    69    1
    10   152   151   ar
    11    69    68    1
    12   147   146    1
    13   147   150    1
    14    33    31   ar
    15    29    31   ar
    16    29    28    1
    17    68    67    1
    18    27    26    2
    19    65    64    2
    20   146   141   am
    21   151   150    1
    22   151   153   ar
    23    28    25    1
    24   142   141    2
    25    67    66    1
    26   141   140    1
    27    25    26    1
    28    25    24    1
    29    76    75    1
    30    66    63    1
    31    26    35   am
    32    71    72    1
    33    72    75    1
    34    72    73    1
    35    64    63    1
    36   140   139    1
    37   140   143    1
    38    86    85   ar
    39    63    62    1
    40   130   128   am
    41    85    84    1
    42    85    87   ar
    43    35    36    1
    44    84    83    1
    45   144   143    1
    46    79    73   am
    47    79    80    1
    48    73    74    2
    49    36    37    1
    50   143   145    1
    51   128   127    1
    52   128   129    2
    53   127   124    1
    54    83    80    1
    55    60    59    2
    56    80    81    1
    57   126   125    2
    58    37    39   am
    59    37    38    2
    60    39    40    1
    61    42    41    2
    62    59    58    1
    63    23    22    2
    64   125   124    1
    65    82    81    2
    66   124   123    1
    67    81    88   am
    68    56    54    1
    69    22    21    1
    70    49    47    1
    71    41    40    1
    72    41    50   am
    73    40    43    1
    74    46    47    2
    75    46    45    1
    76    44    43    1
    77    44    45    1
    78    57    58    1
    79   123   116   am
    80    58    61    1
    81    21    20    1
    82    47    48    1
    83    88    89    1
    84    54    51    1
    85    54    55    1
    86    51    50    1
    87    51    52    1
    88    20    15   am
    89   131   132    1
    90   136   135    1
    91   136   137    1
    92   116   117    2
    93   116   115    1
    94    16    15    2
    95    15    14    1
    96    89    90    1
    97    89    92    1
    98   135   132    1
    99    52    53    2
   100   134   133    2
   101   118   115    1
   102   118   119    1
   103   114   115    1
   104   132   133    1
   105    90    91    2
   106    90   100   am
   107   121   120   ar
   108   137   138    1
   109    14    13    1
   110    14    17    1
   111    92    93    1
   112    12    11    2
   113   100   101    1
   114   120   122   ar
   115   120   119    1
   116   104   101    1
   117    13    11   am
   118    11    10    1
   119    17    18    1
   120    17    19    1
   121   101   102    1
   122    93    94   ar
   123    93    95   ar
   124    94    96   ar
   125    10     9    1
   126   113   111   ar
   127     9     3   am
   128   111   110    1
   129   111   112   ar
   130     7     6    1
   131   110   109    1
   132   102   103    2
   133    95    97   ar
   134   109   106    1
   135     5     6    1
   136     5     2    1
   137    96    98   ar
   138     3     4    2
   139     3     2    1
   140   106   107    1
   141   106   105    1
   142     1     2    1
   143     6     8    1
   144   162   164   ar
   145   162   160   ar
   146   107   108    2
   147   164   163   ar
   148    97    98   ar
   149    98    99    1
   150   160   159   ar
   151   163   161   ar
   152   159   161   ar
   153   159   158    1
   154   158   155    1
   155   155   154    1
   156   155   156    1
   157   156   157    2
