@<TRIPOS>MOLECULE
tmp/2uw9A01.pdb
 197 189 0 0 0
SMALL
GASTEIGER

@<TRIPOS>ATOM
      1  N         50.1750   32.5020  107.5300 N.3    13  LEU13      -0.1231
      2  CA        50.0040   32.4460  108.9830 C.3    13  LEU13       0.1693
      3  C         49.3720   31.1130  109.4060 C.2    13  LEU13       0.2593
      4  O         49.6430   30.5820  110.4960 O.2    13  LEU13      -0.2718
      5  CB        49.1590   33.6240  109.4640 C.3    13  LEU13       0.0284
      6  CG        49.5750   35.0200  108.9770 C.3    13  LEU13       0.0019
      7  CD1       48.7170   36.1260  109.6650 C.3    13  LEU13       0.0001
      8  CD2       51.0610   35.2730  109.1600 C.3    13  LEU13       0.0001
      9  N         48.5250   30.5610  108.5530 N.am   14  GLY14      -0.1942
     10  CA        47.8940   29.3020  108.8790 C.3    14  GLY14       0.2014
     11  C         46.9230   28.8280  107.8400 C.2    14  GLY14       0.2639
     12  O         46.5200   29.5950  106.9560 O.2    14  GLY14      -0.2714
     13  N         46.5410   27.5620  107.9960 N.am   15  LYS15      -0.1963
     14  CA        45.6670   26.8290  107.0760 C.3    15  LYS15       0.1728
     15  C         44.4980   26.2110  107.8480 C.2    15  LYS15       0.2617
     16  O         44.6370   25.7910  109.0050 O.2    15  LYS15      -0.2715
     17  CB        46.4410   25.6800  106.3940 C.3    15  LYS15       0.0311
     18  CG        47.2970   26.0410  105.1740 C.3    15  LYS15       0.0038
     19  CD        48.0460   24.8010  104.6320 C.3    15  LYS15       0.0206
     20  CE        48.7080   25.0640  103.2520 C.3    15  LYS15       0.1093
     21  NZ        49.4980   23.8970  102.7100 N.3    15  LYS15      -0.1314
     22  N         43.3460   26.1630  107.1950 N.am   16  GLY16      -0.1940
     23  CA        42.1690   25.4580  107.7020 C.3    16  GLY16       0.2014
     24  C         41.6970   24.4770  106.6410 C.2    16  GLY16       0.2640
     25  O         42.4150   24.1910  105.6630 O.2    16  GLY16      -0.2714
     26  N         40.4760   23.9830  106.8150 N.am   17  THR17      -0.1936
     27  CA        39.9660   22.8670  106.0010 C.3    17  THR17       0.2028
     28  C         39.4910   23.2970  104.5980 C.2    17  THR17       0.2642
     29  O         39.3950   22.4620  103.7010 O.2    17  THR17      -0.2714
     30  CB        38.8600   22.0900  106.7800 C.3    17  THR17       0.1808
     31  OG1       39.3910   21.6590  108.0470 O.3    17  THR17      -0.2208
     32  CG2       38.3860   20.8740  105.9980 C.3    17  THR17       0.0379
     33  N         39.2400   24.5990  104.4220 N.am   18  PHE18      -0.1959
     34  CA        38.6930   25.1630  103.1790 C.3    18  PHE18       0.1774
     35  C         39.4810   26.3730  102.6650 C.2    18  PHE18       0.2659
     36  O         39.0130   27.0880  101.7770 O.2    18  PHE18      -0.2711
     37  CB        37.2160   25.5790  103.3950 C.3    18  PHE18       0.0574
     38  CG        36.3750   24.5120  104.0500 C.ar   18  PHE18      -0.0200
     39  CD1       36.2050   24.4940  105.4400 C.ar   18  PHE18      -0.0042
     40  CD2       35.7980   23.4960  103.2880 C.ar   18  PHE18      -0.0042
     41  CE1       35.4480   23.4860  106.0660 C.ar   18  PHE18      -0.0003
     42  CE2       35.0440   22.4770  103.8980 C.ar   18  PHE18      -0.0003
     43  CZ        34.8660   22.4730  105.2930 C.ar   18  PHE18      -0.0000
     44  N         40.6700   26.6130  103.2080 N.am   19  GLY19      -0.1716
     45  CA        41.4630   27.7760  102.7980 C.2    19  GLY19       0.1480
     46  C         42.7680   28.0030  103.5370 C.2    19  GLY19       0.2820
     47  O         43.3210   27.0870  104.1460 O.2    19  GLY19      -0.2669
     48  N         43.2540   29.2380  103.4620 N.am   20  LYS20      -0.1929
     49  CA        44.5010   29.6280  104.1040 C.3    20  LYS20       0.1731
     50  C         44.4500   31.0850  104.5530 C.2    20  LYS20       0.2616
     51  O         43.6150   31.8610  104.0560 O.2    20  LYS20      -0.2715
     52  CB        45.6780   29.4020  103.1530 C.3    20  LYS20       0.0312
     53  CG        45.5800   30.1250  101.7980 C.3    20  LYS20       0.0038
     54  CD        46.8550   29.9330  100.9430 C.3    20  LYS20       0.0206
     55  CE        47.0050   28.4880  100.4020 C.3    20  LYS20       0.1093
     56  NZ        48.3250   28.2570   99.6980 N.3    20  LYS20      -0.1314
     57  N         45.3270   31.4450  105.4970 N.am   21  VAL21      -0.1977
     58  CA        45.4290   32.8290  105.9780 C.3    21  VAL21       0.1596
     59  C         46.8210   33.3800  105.7620 C.2    21  VAL21       0.2287
     60  O         47.8000   32.7170  106.0890 O.2    21  VAL21      -0.2864
     61  CB        45.0220   32.9620  107.4480 C.3    21  VAL21       0.0276
     62  CG1       45.3230   34.3240  107.9570 C.3    21  VAL21       0.0022
     63  CG2       43.5210   32.7140  107.5900 C.3    21  VAL21       0.0022
     64  N         46.0120   40.3440  108.2020 N.3    34  ALA34      -0.1245
     65  CA        45.8070   38.9330  107.9590 C.3    34  ALA34       0.1562
     66  C         44.6250   38.8410  107.0000 C.2    34  ALA34       0.2260
     67  O         43.5710   39.4240  107.2650 O.2    34  ALA34      -0.2867
     68  CB        45.5310   38.2020  109.2300 C.3    34  ALA34       0.0290
     69  N         42.2270   36.1360  104.9440 N.3    36  LYS36      -0.1245
     70  CA        41.7760   34.7550  104.8170 C.3    36  LYS36       0.1561
     71  C         41.2590   34.5150  103.3970 C.2    36  LYS36       0.2260
     72  O         40.3990   35.2460  102.9240 O.2    36  LYS36      -0.2867
     73  CB        40.6740   34.5030  105.8330 C.3    36  LYS36       0.0271
     74  CG        40.1420   33.0820  105.9420 C.3    36  LYS36       0.0035
     75  CD        39.0700   33.0470  107.0570 C.3    36  LYS36       0.0206
     76  CE        38.5920   31.6480  107.3860 C.3    36  LYS36       0.1093
     77  NZ        38.1820   31.5560  108.8200 N.3    36  LYS36      -0.1314
     78  N         39.6720   31.7710  100.6180 N.3    38  LEU38      -0.1245
     79  CA        38.9840   30.4920  100.4290 C.3    38  LEU38       0.1561
     80  C         38.5550   30.3580   98.9630 C.2    38  LEU38       0.2260
     81  O         38.3580   31.3670   98.2690 O.2    38  LEU38      -0.2867
     82  CB        37.7440   30.3800  101.3380 C.3    38  LEU38       0.0270
     83  CG        37.6800   31.0340  102.7210 C.3    38  LEU38       0.0019
     84  CD1       36.2450   31.2610  103.0840 C.3    38  LEU38       0.0001
     85  CD2       38.3640   30.2060  103.7950 C.3    38  LEU38       0.0001
     86  N         38.2150   40.0600  116.4470 N.3    68  THR68      -0.1218
     87  CA        38.9080   40.4360  115.2190 C.3    68  THR68       0.1862
     88  C         37.9790   41.2760  114.3390 C.2    68  THR68       0.2287
     89  O         36.8500   40.8880  114.0670 O.2    68  THR68      -0.2866
     90  CB        39.3820   39.2050  114.3900 C.3    68  THR68       0.1770
     91  OG1       40.6590   38.7490  114.8550 O.3    68  THR68      -0.2211
     92  CG2       39.4930   39.5650  112.8940 C.3    68  THR68       0.0375
     93  N         41.1790   40.9750  107.4620 N.3    84  MET84      -0.1230
     94  CA        40.9980   41.1190  108.9020 C.3    84  MET84       0.1702
     95  C         42.1790   41.8160  109.5260 C.2    84  MET84       0.2592
     96  O         43.2890   41.7140  109.0340 O.2    84  MET84      -0.2718
     97  CB        40.9570   39.7460  109.5680 C.3    84  MET84       0.0401
     98  CG        39.8730   38.8320  109.0980 C.3    84  MET84       0.0596
     99  SD        40.1820   37.1370  109.6110 S.3    84  MET84      -0.1393
    100  CE        41.8720   36.8470  109.0790 C.3    84  MET84       0.0692
    101  N         41.9560   42.4490  110.6640 N.am   85  GLU85      -0.1966
    102  CA        43.0560   43.0500  111.3650 C.3    85  GLU85       0.1733
    103  C         44.0190   41.9620  111.8240 C.2    85  GLU85       0.2616
    104  O         43.6000   40.8980  112.2390 O.2    85  GLU85      -0.2715
    105  CB        42.5620   43.9330  112.5200 C.3    85  GLU85       0.0429
    106  CG        41.9610   43.2390  113.7270 C.3    85  GLU85       0.1163
    107  CD        41.3150   44.2620  114.6880 C.2    85  GLU85       0.3649
    108  OE1       41.6130   45.4800  114.6070 O.co2  85  GLU85      -0.2457
    109  OE2       40.4940   43.8610  115.5220 O.co2  85  GLU85      -0.2457
    110  N         45.3130   42.2520  111.7210 N.am   86  TYR86      -0.1960
    111  CA        46.3820   41.2640  111.9190 C.3    86  TYR86       0.1771
    112  C         46.7130   41.1360  113.4030 C.2    86  TYR86       0.2619
    113  O         47.0580   42.1280  114.0720 O.2    86  TYR86      -0.2715
    114  CB        47.6290   41.6730  111.1060 C.3    86  TYR86       0.0574
    115  CG        48.8770   40.8890  111.4110 C.ar   86  TYR86      -0.0198
    116  CD1       48.8610   39.4940  111.4490 C.ar   86  TYR86      -0.0009
    117  CD2       50.0790   41.5320  111.6740 C.ar   86  TYR86      -0.0009
    118  CE1       49.9990   38.7750  111.7620 C.ar   86  TYR86       0.0417
    119  CE2       51.2150   40.8160  111.9750 C.ar   86  TYR86       0.0417
    120  CZ        51.1720   39.4440  112.0250 C.ar   86  TYR86       0.1957
    121  OH        52.3200   38.7300  112.3090 O.3    86  TYR86      -0.2866
    122  N         46.5980   39.9180  113.9190 N.am   87  ALA87      -0.1977
    123  CA        46.8990   39.6600  115.3260 C.3    87  ALA87       0.1597
    124  C         48.3530   39.1740  115.4970 C.2    87  ALA87       0.2287
    125  O         48.6380   38.0010  115.3720 O.2    87  ALA87      -0.2864
    126  CB        45.9100   38.6560  115.8870 C.3    87  ALA87       0.0319
    127  N         48.4160   32.5240  118.1650 N.3    91  GLU91      -0.1245
    128  CA        47.3400   31.9350  118.9510 C.3    91  GLU91       0.1567
    129  C         47.7730   31.7780  120.3840 C.2    91  GLU91       0.2260
    130  O         48.9280   31.4590  120.6410 O.2    91  GLU91      -0.2867
    131  CB        46.9630   30.5470  118.4460 C.3    91  GLU91       0.0388
    132  CG        46.8500   30.3940  116.9540 C.3    91  GLU91       0.1160
    133  CD        46.4880   28.9840  116.5800 C.2    91  GLU91       0.3649
    134  OE1       47.2260   28.0360  116.9290 O.co2  91  GLU91      -0.2457
    135  OE2       45.4310   28.8140  115.9700 O.co2  91  GLU91      -0.2457
    136  N         42.8140   27.5760  119.8640 N.3   134  GLU134     -0.1231
    137  CA        43.1800   27.9060  118.4770 C.3   134  GLU134      0.1699
    138  C         42.5290   29.1710  117.9330 C.2   134  GLU134      0.2592
    139  O         43.0540   29.7520  116.9800 O.2   134  GLU134     -0.2718
    140  CB        42.8690   26.7450  117.5160 C.3   134  GLU134      0.0402
    141  CG        43.7840   25.5120  117.7360 C.3   134  GLU134      0.1161
    142  CD        43.2200   24.5810  118.7540 C.2   134  GLU134      0.3649
    143  OE1       42.4870   25.0730  119.6400 O.co2 134  GLU134     -0.2457
    144  OE2       43.4730   23.3660  118.6610 O.co2 134  GLU134     -0.2457
    145  N         41.4070   29.5750  118.5240 N.am  135  ASN135     -0.1974
    146  CA        40.6100   30.7160  118.0470 C.3   135  ASN135      0.1688
    147  C         40.7900   31.9950  118.8480 C.2   135  ASN135      0.2292
    148  O         40.0930   32.9880  118.6060 O.2   135  ASN135     -0.2864
    149  CB        39.1340   30.3470  118.1110 C.3   135  ASN135      0.1181
    150  CG        38.7150   29.4440  117.0050 C.2   135  ASN135      0.2629
    151  OD1       39.3900   29.3370  116.0120 O.2   135  ASN135     -0.2716
    152  ND2       37.5920   28.7820  117.1800 N.am  135  ASN135     -0.0877
    153  N         43.3740   34.6530  119.5070 N.3   137  MET137     -0.1245
    154  CA        44.6320   35.2460  119.0680 C.3   137  MET137      0.1570
    155  C         45.0220   36.3310  120.0490 C.2   137  MET137      0.2261
    156  O         44.2070   36.7520  120.8580 O.2   137  MET137     -0.2867
    157  CB        44.5210   35.8270  117.6450 C.3   137  MET137      0.0387
    158  CG        43.9720   34.8730  116.6020 C.3   137  MET137      0.0595
    159  SD        45.0440   33.4920  116.1370 S.3   137  MET137     -0.1393
    160  CE        46.1330   34.2930  114.9730 C.3   137  MET137      0.0692
    161  N         38.7950   34.9080  116.9670 N.3   147  THR147     -0.1203
    162  CA        38.7230   34.7640  115.5160 C.3   147  THR147      0.1994
    163  C         37.8020   33.6060  115.0780 C.2   147  THR147      0.2617
    164  O         37.3680   32.7820  115.8800 O.2   147  THR147     -0.2717
    165  CB        40.1110   34.5560  114.9300 C.3   147  THR147      0.1784
    166  OG1       40.0270   34.5350  113.4910 O.3   147  THR147     -0.2211
    167  CG2       40.6800   33.2500  115.4430 C.3   147  THR147      0.0376
    168  N         37.4990   33.5890  113.7830 N.am  148  ASP148     -0.1973
    169  CA        36.7550   32.5100  113.1280 C.3   148  ASP148      0.1709
    170  C         35.3180   32.3550  113.5830 C.2   148  ASP148      0.2293
    171  O         35.0090   31.5480  114.4650 O.2   148  ASP148     -0.2864
    172  CB        37.5120   31.1900  113.2330 C.3   148  ASP148      0.1436
    173  CG        38.5460   31.0450  112.1410 C.2   148  ASP148      0.3671
    174  OD1       38.7820   29.8820  111.7770 O.co2 148  ASP148     -0.2456
    175  OD2       39.0910   32.0730  111.6360 O.co2 148  ASP148     -0.2456
    176  N         53.7220   32.5070  115.0920 N.3   293  PHE293     -0.1241
    177  CA        53.0380   31.5460  114.2080 C.3   293  PHE293      0.1605
    178  C         54.0020   30.4090  113.8680 C.2   293  PHE293      0.2264
    179  O         55.1810   30.6580  113.6060 O.2   293  PHE293     -0.2867
    180  CB        52.5500   32.2460  112.9310 C.3   293  PHE293      0.0534
    181  CG        51.5600   33.3240  113.2040 C.ar  293  PHE293     -0.0203
    182  CD1       51.9720   34.5650  113.6630 C.ar  293  PHE293     -0.0042
    183  CD2       50.2080   33.0950  113.0630 C.ar  293  PHE293     -0.0042
    184  CE1       51.0580   35.5590  113.9400 C.ar  293  PHE293     -0.0003
    185  CE2       49.2870   34.0980  113.3540 C.ar  293  PHE293     -0.0003
    186  CZ        49.7230   35.3270  113.7970 C.ar  293  PHE293     -0.0000
    187  N         53.8640   26.6420  109.1370 N.3   297  PHE297     -0.1241
    188  CA        53.0810   27.4440  108.2100 C.3   297  PHE297      0.1605
    189  C         53.8850   28.6060  107.6460 C.2   297  PHE297      0.2264
    190  O         53.8280   28.8630  106.4460 O.2   297  PHE297     -0.2867
    191  CB        51.8300   27.9660  108.9100 C.3   297  PHE297      0.0534
    192  CG        50.9950   26.8750  109.5380 C.ar  297  PHE297     -0.0203
    193  CD1       50.9420   26.7260  110.9220 C.ar  297  PHE297     -0.0042
    194  CD2       50.2930   25.9780  108.7470 C.ar  297  PHE297     -0.0042
    195  CE1       50.1950   25.7170  111.5110 C.ar  297  PHE297     -0.0003
    196  CE2       49.5410   24.9660  109.3280 C.ar  297  PHE297     -0.0003
    197  CZ        49.4950   24.8370  110.7210 C.ar  297  PHE297     -0.0000
@<TRIPOS>BOND
     1    81    80    2
     2    80    79    1
     3    56    55    1
     4    55    54    1
     5    79    78    1
     6    79    82    1
     7    54    53    1
     8    82    83    1
     9    36    35    2
    10    53    52    1
    11    35    34    1
    12    35    44    1
    13    21    20    1
    14    83    84    1
    15    83    85    1
    16    45    44    2
    17    45    46    1
    18    72    71    2
    19    52    49    1
    20    34    37    1
    21    34    33    1
    22    20    19    1
    23    40    42   ar
    24    40    38   ar
    25    37    38    1
    26    71    70    1
    27    48    46   am
    28    48    49    1
    29    46    47    2
    30    29    28    2
    31    42    43   ar
    32    38    39   ar
    33    51    50    2
    34    49    50    1
    35    33    28   am
    36    50    57   am
    37    28    27    1
    38    19    18    1
    39    70    69    1
    40    70    73    1
    41    18    17    1
    42    43    41   ar
    43    39    41   ar
    44    57    58    1
    45    25    24    2
    46    59    58    1
    47    59    60    2
    48    73    74    1
    49    74    75    1
    50    58    61    1
    51    32    30    1
    52    27    30    1
    53    27    26    1
    54    17    14    1
    55   190   189    2
    56    24    26   am
    57    24    23    1
    58    30    31    1
    59    12    11    2
    60    66    67    2
    61    66    65    1
    62    75    76    1
    63    14    15    1
    64    14    13    1
    65    22    23    1
    66    22    15   am
    67    76    77    1
    68    61    63    1
    69    61    62    1
    70    93    94    1
    71     1     2    1
    72   189   188    1
    73    11    13   am
    74    11    10    1
    75    15    16    2
    76    65    64    1
    77    65    68    1
    78   188   191    1
    79   188   187    1
    80     9    10    1
    81     9     3   am
    82   194   196   ar
    83   194   192   ar
    84    94    95    1
    85    94    97    1
    86   191   192    1
    87     6     8    1
    88     6     5    1
    89     6     7    1
    90     2     3    1
    91     2     5    1
    92    96    95    2
    93   100    99    1
    94    98    97    1
    95    98    99    1
    96   196   197   ar
    97     3     4    2
    98    95   101   am
    99   192   193   ar
   100   101   102    1
   101   197   195   ar
   102   193   195   ar
   103   114   115    1
   104   114   111    1
   105   102   103    1
   106   102   105    1
   107   115   116   ar
   108   115   117   ar
   109   116   118   ar
   110   175   173   ar
   111   117   119   ar
   112   110   103   am
   113   110   111    1
   114   118   120   ar
   115   174   173   ar
   116   103   104    2
   117   111   112    1
   118   119   120   ar
   119   120   121    1
   120   173   172    1
   121   105   106    1
   122    92    90    1
   123   180   181    1
   124   180   177    1
   125   183   181   ar
   126   183   185   ar
   127   169   172    1
   128   169   170    1
   129   169   168    1
   130   181   182   ar
   131   185   186   ar
   132   112   122   am
   133   112   113    2
   134   166   165    1
   135   170   171    2
   136   179   178    2
   137   182   184   ar
   138   106   107    1
   139   168   163   am
   140   186   184   ar
   141   178   177    1
   142   122   123    1
   143    89    88    2
   144   177   176    1
   145    88    87    1
   146    90    91    1
   147    90    87    1
   148   108   107   ar
   149   107   109   ar
   150   165   167    1
   151   165   162    1
   152   160   159    1
   153   163   162    1
   154   163   164    2
   155    87    86    1
   156   123   124    1
   157   123   126    1
   158   125   124    2
   159   162   161    1
   160   135   133   ar
   161   151   150    2
   162   159   158    1
   163   133   134   ar
   164   133   132    1
   165   158   157    1
   166   132   131    1
   167   139   138    2
   168   150   152   am
   169   150   149    1
   170   140   141    1
   171   140   137    1
   172   157   154    1
   173   141   142    1
   174   138   137    1
   175   138   145   am
   176   146   149    1
   177   146   145    1
   178   146   147    1
   179   127   128    1
   180   131   128    1
   181   137   136    1
   182   148   147    2
   183   144   142   ar
   184   142   143   ar
   185   128   129    1
   186   154   153    1
   187   154   155    1
   188   155   156    2
   189   129   130    2
