@<TRIPOS>MOLECULE
tmp/2uwdA00.pdb
 157 144 0 0 0
SMALL
GASTEIGER

@<TRIPOS>ATOM
      1  N         31.0170   11.3620   16.0470 N.3    33  LEU33      -0.1245
      2  CA        30.4220   11.8240   17.3210 C.3    33  LEU33       0.1561
      3  C         29.0850   11.1480   17.6710 C.2    33  LEU33       0.2260
      4  O         28.7980   10.8410   18.8480 O.2    33  LEU33      -0.2867
      5  CB        30.2920   13.3410   17.3180 C.3    33  LEU33       0.0270
      6  CG        31.5930   14.1450   17.1720 C.3    33  LEU33       0.0019
      7  CD1       31.1970   15.6080   16.9520 C.3    33  LEU33       0.0001
      8  CD2       32.5570   13.9100   18.3900 C.3    33  LEU33       0.0001
      9  N         30.1170    7.7270   19.1230 N.3    36  ASN36      -0.1225
     10  CA        30.4470    7.8950   20.5380 C.3    36  ASN36       0.1785
     11  C         29.1650    8.0110   21.4150 C.2    36  ASN36       0.2597
     12  O         29.0880    7.4500   22.4990 O.2    36  ASN36      -0.2718
     13  CB        31.3390    9.1450   20.6990 C.3    36  ASN36       0.1169
     14  CG        32.8160    8.8890   20.2940 C.2    36  ASN36       0.2627
     15  OD1       33.1750    7.8240   19.7940 O.2    36  ASN36      -0.2716
     16  ND2       33.6680    9.8850   20.5270 N.am   36  ASN36      -0.0877
     17  N         28.1960    8.7970   20.9570 N.am   37  SER37      -0.1952
     18  CA        26.9320    8.9700   21.6840 C.3    37  SER37       0.1924
     19  C         26.2410    7.6090   21.8050 C.2    37  SER37       0.2314
     20  O         25.8240    7.2220   22.8860 O.2    37  SER37      -0.2863
     21  CB        26.0070    9.9650   20.9900 C.3    37  SER37       0.2116
     22  OG        26.5310   11.2930   21.0500 O.3    37  SER37      -0.2180
     23  N         27.7000    4.5510   21.6130 N.3    39  ASP39      -0.1225
     24  CA        28.4470    3.7440   22.6140 C.3    39  ASP39       0.1805
     25  C         28.0870    4.1180   24.0850 C.2    39  ASP39       0.2597
     26  O         27.9350    3.2470   24.9310 O.2    39  ASP39      -0.2718
     27  CB        29.9690    3.8360   22.4410 C.3    39  ASP39       0.1424
     28  CG        30.4800    3.2910   21.1050 C.2    39  ASP39       0.3668
     29  OD1       29.7710    2.5510   20.3820 O.co2  39  ASP39      -0.2456
     30  OD2       31.6390    3.6330   20.7820 O.co2  39  ASP39      -0.2456
     31  N         27.9590    5.4190   24.3820 N.am   40  ALA40      -0.1979
     32  CA        27.5930    5.8520   25.7460 C.3    40  ALA40       0.1597
     33  C         26.1450    5.4710   26.1160 C.2    40  ALA40       0.2287
     34  O         25.8260    5.2170   27.3050 O.2    40  ALA40      -0.2864
     35  CB        27.8470    7.3830   25.9000 C.3    40  ALA40       0.0319
     36  N         26.0060    1.8480   27.0040 N.3    43  LYS43      -0.1245
     37  CA        26.5240    1.6460   28.3620 C.3    43  LYS43       0.1561
     38  C         25.5200    1.8900   29.4910 C.2    43  LYS43       0.2260
     39  O         25.4400    1.0800   30.4370 O.2    43  LYS43      -0.2867
     40  CB        27.7950    2.4760   28.6000 C.3    43  LYS43       0.0271
     41  CG        29.0220    1.9470   27.9040 C.3    43  LYS43       0.0035
     42  CD        30.2210    2.8540   28.1900 C.3    43  LYS43       0.0206
     43  CE        31.4900    2.0580   28.0650 C.3    43  LYS43       0.1093
     44  NZ        31.9500    2.0120   26.6720 N.3    43  LYS43      -0.1314
     45  N         25.6740   18.4230   19.4630 N.3    76  ILE76      -0.1245
     46  CA        25.2180   17.0280   19.5910 C.3    76  ILE76       0.1561
     47  C         24.9730   16.6410   21.0530 C.2    76  ILE76       0.2260
     48  O         25.8880   16.7160   21.9000 O.2    76  ILE76      -0.2867
     49  CB        26.1940   15.9880   18.9520 C.3    76  ILE76       0.0252
     50  CG1       26.5230   16.3370   17.4880 C.3    76  ILE76       0.0019
     51  CG2       25.6450   14.5530   19.0650 C.3    76  ILE76       0.0019
     52  CD1       27.6720   17.3100   17.3460 C.3    76  ILE76       0.0001
     53  N         23.3820   13.7250   23.7750 N.3    78  ASP78      -0.1239
     54  CA        22.8670   12.3930   24.0380 C.3    78  ASP78       0.1674
     55  C         22.5230   12.2840   25.5190 C.2    78  ASP78       0.2266
     56  O         23.0150   13.0730   26.3480 O.2    78  ASP78      -0.2867
     57  CB        23.8630   11.2870   23.6180 C.3    78  ASP78       0.1410
     58  CG        25.1660   11.3230   24.4210 C.2    78  ASP78       0.3668
     59  OD1       25.1360   11.0830   25.6620 O.co2  78  ASP78      -0.2456
     60  OD2       26.2320   11.5770   23.8060 O.co2  78  ASP78      -0.2456
     61  N         25.6950    7.4150   29.1850 N.3    81  ILE81      -0.1231
     62  CA        26.2120    7.2420   30.5570 C.3    81  ILE81       0.1692
     63  C         26.9190    8.5020   31.1130 C.2    81  ILE81       0.2593
     64  O         26.9700    8.7270   32.3490 O.2    81  ILE81      -0.2718
     65  CB        27.0790    5.9520   30.6490 C.3    81  ILE81       0.0266
     66  CG1       27.2050    5.4700   32.1150 C.3    81  ILE81       0.0019
     67  CG2       28.3970    6.1030   29.8330 C.3    81  ILE81       0.0020
     68  CD1       27.4480    3.9630   32.2660 C.3    81  ILE81       0.0001
     69  N         27.4450    9.3230   30.2030 N.am   82  GLY82      -0.1942
     70  CA        28.2260   10.5030   30.5780 C.3    82  GLY82       0.2014
     71  C         29.6280   10.1880   31.1010 C.2    82  GLY82       0.2638
     72  O         30.0080    9.0440   31.2670 O.2    82  GLY82      -0.2714
     73  N         30.4150   11.2300   31.3220 N.am   83  MET83      -0.1976
     74  CA        31.7740   11.0490   31.8140 C.3    83  MET83       0.1605
     75  C         31.9740   11.7470   33.1630 C.2    83  MET83       0.2287
     76  O         31.3670   12.8090   33.4430 O.2    83  MET83      -0.2864
     77  CB        32.7920   11.5250   30.7640 C.3    83  MET83       0.0413
     78  CG        32.7980   10.6810   29.4600 C.3    83  MET83       0.0598
     79  SD        33.6800   11.4560   28.0760 S.3    83  MET83      -0.1393
     80  CE        32.4790   12.7130   27.5910 C.3    83  MET83       0.0692
     81  N         37.4080   10.8070   33.7170 N.3    87  ASP87      -0.1239
     82  CA        37.2170   10.4580   32.3010 C.3    87  ASP87       0.1674
     83  C         37.5400   11.5980   31.3320 C.2    87  ASP87       0.2266
     84  O         38.2880   11.4010   30.3770 O.2    87  ASP87      -0.2867
     85  CB        35.7930    9.9610   32.0850 C.3    87  ASP87       0.1410
     86  CG        35.5300    8.6300   32.7660 C.2    87  ASP87       0.3668
     87  OD1       36.4310    7.7460   32.7920 O.co2  87  ASP87      -0.2456
     88  OD2       34.4050    8.4580   33.2600 O.co2  87  ASP87      -0.2456
     89  N         38.8690   12.1740   27.3860 N.3    92  LEU92      -0.1231
     90  CA        37.4270   11.9320   27.1760 C.3    92  LEU92       0.1693
     91  C         37.0760   10.4150   27.1400 C.2    92  LEU92       0.2593
     92  O         36.3110    9.9480   26.3020 O.2    92  LEU92      -0.2718
     93  CB        36.9330   12.7090   25.9150 C.3    92  LEU92       0.0284
     94  CG        37.2410   14.2290   25.9910 C.3    92  LEU92       0.0019
     95  CD1       38.5800   14.6040   25.3000 C.3    92  LEU92       0.0001
     96  CD2       36.1740   15.0620   25.4430 C.3    92  LEU92       0.0001
     97  N         37.6660    9.6540   28.0620 N.am   93  GLY93      -0.1942
     98  CA        37.3940    8.2100   28.1640 C.3    93  GLY93       0.2014
     99  C         37.9060    7.3300   27.0310 C.2    93  GLY93       0.2639
    100  O         37.4360    6.1990   26.8710 O.2    93  GLY93      -0.2714
    101  N         38.8540    7.8470   26.2460 N.am   94  THR94      -0.1950
    102  CA        39.4440    7.1410   25.1140 C.3    94  THR94       0.1897
    103  C         40.7900    6.5520   25.5240 C.2    94  THR94       0.2313
    104  O         41.4070    7.0240   26.4780 O.2    94  THR94      -0.2863
    105  CB        39.6960    8.0660   23.8480 C.3    94  THR94       0.1794
    106  OG1       40.6850    9.0640   24.1460 O.3    94  THR94      -0.2208
    107  CG2       38.4260    8.7480   23.3660 C.3    94  THR94       0.0378
    108  N         39.6970    4.3000   18.0770 N.3   120  GLY120     -0.1225
    109  CA        39.1390    4.8060   19.3340 C.3   120  GLY120      0.1811
    110  C         39.2990    6.3030   19.6230 C.2   120  GLY120      0.2280
    111  O         39.0810    6.7290   20.7400 O.2   120  GLY120     -0.2866
    112  N         37.9890    8.8080   17.3620 N.3   122  GLY122     -0.1210
    113  CA        37.0320    9.5060   16.5180 C.3   122  GLY122      0.1956
    114  C         36.6140   10.8780   17.0310 C.2   122  GLY122      0.2611
    115  O         36.3590   11.7740   16.2440 O.2   122  GLY122     -0.2717
    116  N         36.5330   11.0580   18.3530 N.am  123  PHE123     -0.1976
    117  CA        36.2810   12.4190   18.8960 C.3   123  PHE123      0.1639
    118  C         37.0800   13.5690   18.2370 C.2   123  PHE123      0.2290
    119  O         36.5030   14.6210   17.9300 O.2   123  PHE123     -0.2864
    120  CB        36.4740   12.4880   20.4250 C.3   123  PHE123      0.0560
    121  CG        36.4090   13.8820   20.9680 C.ar  123  PHE123     -0.0200
    122  CD1       35.1920   14.5740   20.9890 C.ar  123  PHE123     -0.0042
    123  CD2       37.5840   14.5330   21.4190 C.ar  123  PHE123     -0.0042
    124  CE1       35.1170   15.8970   21.4990 C.ar  123  PHE123     -0.0003
    125  CE2       37.5350   15.8560   21.9390 C.ar  123  PHE123     -0.0003
    126  CZ        36.3060   16.5380   21.9770 C.ar  123  PHE123     -0.0000
    127  N         32.7610   20.2220   25.5950 N.3   135  VAL135     -0.1245
    128  CA        32.0740   18.9870   25.9720 C.3   135  VAL135      0.1561
    129  C         31.4930   19.1530   27.3700 C.2   135  VAL135      0.2260
    130  O         32.2510   19.1860   28.3860 O.2   135  VAL135     -0.2867
    131  CB        32.9910   17.7220   25.9100 C.3   135  VAL135      0.0252
    132  CG1       32.2000   16.4360   26.3630 C.3   135  VAL135      0.0019
    133  CG2       33.5970   17.5350   24.5040 C.3   135  VAL135      0.0019
    134  N         27.6300   12.4510   34.5150 N.3   139  HIS139     -0.1241
    135  CA        27.5840   11.0240   34.8490 C.3   139  HIS139      0.1621
    136  C         26.8590   10.8570   36.1860 C.2   139  HIS139      0.2264
    137  O         26.9650   11.7190   37.0570 O.2   139  HIS139     -0.2867
    138  CB        29.0110   10.4990   34.9650 C.3   139  HIS139      0.0745
    139  CG        29.1170    9.0160   35.1830 C.ar  139  HIS139      0.0817
    140  ND1       28.8660    8.4170   36.4010 N.ar  139  HIS139     -0.2268
    141  CD2       29.5020    8.0230   34.3490 C.ar  139  HIS139      0.1154
    142  CE1       29.0640    7.1140   36.3010 C.ar  139  HIS139      0.1986
    143  NE2       29.4510    6.8480   35.0640 N.ar  139  HIS139     -0.2212
    144  N         25.8300   13.5940   27.5950 N.3   169  THR169     -0.1218
    145  CA        26.9140   14.3870   27.0530 C.3   169  THR169      0.1862
    146  C         26.3830   15.3160   25.9570 C.2   169  THR169      0.2287
    147  O         25.5540   14.9170   25.0920 O.2   169  THR169     -0.2866
    148  CB        28.0750   13.4620   26.5840 C.3   169  THR169      0.1770
    149  OG1       28.5410   12.7200   27.7160 O.3   169  THR169     -0.2211
    150  CG2       29.2620   14.2290   25.9490 C.3   169  THR169      0.0375
    151  N         28.0750   17.9220   23.1350 N.3   171  VAL171     -0.1245
    152  CA        29.2580   18.3530   22.3860 C.3   171  VAL171      0.1561
    153  C         28.8890   19.5980   21.5620 C.2   171  VAL171      0.2260
    154  O         28.0860   19.5290   20.6210 O.2   171  VAL171     -0.2867
    155  CB        29.8460   17.2200   21.4520 C.3   171  VAL171      0.0252
    156  CG1       31.0920   17.7510   20.6590 C.3   171  VAL171      0.0019
    157  CG2       30.2070   15.9630   22.2520 C.3   171  VAL171      0.0019
@<TRIPOS>BOND
     1     1     2    1
     2   115   114    2
     3   113   114    1
     4   113   112    1
     5     7     6    1
     6   114   116   am
     7     6     5    1
     8     6     8    1
     9     5     2    1
    10     2     3    1
    11    52    50    1
    12    50    49    1
    13     3     4    2
    14   119   118    2
    15   108   109    1
    16   118   117    1
    17   116   117    1
    18   117   120    1
    19    49    51    1
    20    49    46    1
    21     9    10    1
    22   109   110    1
    23    45    46    1
    24    46    47    1
    25   110   111    2
    26    15    14    2
    27    14    16   am
    28    14    13    1
    29    29    28   ar
    30   120   121    1
    31    10    13    1
    32    10    11    1
    33   154   153    2
    34   156   155    1
    35    30    28   ar
    36    17    11   am
    37    17    18    1
    38   121   122   ar
    39   121   123   ar
    40   122   124   ar
    41    21    22    1
    42    21    18    1
    43    47    48    2
    44    28    27    1
    45    11    12    2
    46   123   125   ar
    47   155   157    1
    48   155   152    1
    49   124   126   ar
    50   153   152    1
    51    23    24    1
    52    18    19    1
    53    19    20    2
    54   125   126   ar
    55   152   151    1
    56    27    24    1
    57    24    25    1
    58   107   105    1
    59    57    54    1
    60    57    58    1
    61    53    54    1
    62    60    58   ar
    63   105   106    1
    64   105   102    1
    65    54    55    1
    66    25    31   am
    67    25    26    2
    68    31    32    1
    69    58    59   ar
    70   133   131    1
    71   147   146    2
    72   102   103    1
    73   102   101    1
    74    95    94    1
    75    96    94    1
    76    55    56    2
    77   103   104    2
    78   127   128    1
    79    32    35    1
    80    32    33    1
    81   131   128    1
    82   131   132    1
    83    93    94    1
    84    93    90    1
    85   150   148    1
    86   146   145    1
    87   128   129    1
    88    33    34    2
    89   101    99   am
    90    92    91    2
    91   148   145    1
    92   148   149    1
    93    44    43    1
    94   100    99    2
    95    36    37    1
    96    99    98    1
    97   145   144    1
    98    91    90    1
    99    91    97   am
   100    90    89    1
   101   129   130    2
   102    80    79    1
   103    41    42    1
   104    41    40    1
   105    97    98    1
   106    43    42    1
   107    79    78    1
   108    37    40    1
   109    37    38    1
   110    61    62    1
   111    78    77    1
   112    38    39    2
   113    67    65    1
   114    69    70    1
   115    69    63   am
   116    84    83    2
   117    62    65    1
   118    62    63    1
   119    70    71    1
   120    65    66    1
   121    77    74    1
   122    71    72    2
   123    71    73   am
   124    63    64    2
   125    73    74    1
   126    83    82    1
   127    74    75    1
   128    85    82    1
   129    85    86    1
   130    66    68    1
   131    82    81    1
   132    86    87   ar
   133    86    88   ar
   134    75    76    2
   135   141   143   ar
   136   141   139   ar
   137   134   135    1
   138   135   138    1
   139   135   136    1
   140   138   139    1
   141   143   142   ar
   142   139   140   ar
   143   136   137    2
   144   142   140   ar
