@<TRIPOS>MOLECULE
tmp/2uwhB01.pdb
 229 215 0 0 0
SMALL
GASTEIGER

@<TRIPOS>ATOM
      1  N        -10.3440   -2.5720  -26.1390 N.3    20  LEU20      -0.1245
      2  CA        -9.4140   -3.6840  -26.2040 C.3    20  LEU20       0.1561
      3  C        -10.2180   -4.9600  -26.0260 C.2    20  LEU20       0.2260
      4  O        -10.7980   -5.2170  -24.9580 O.2    20  LEU20      -0.2867
      5  CB        -8.3300   -3.5740  -25.1270 C.3    20  LEU20       0.0270
      6  CG        -6.9880   -2.8960  -25.4380 C.3    20  LEU20       0.0019
      7  CD1       -6.2440   -2.6610  -24.1270 C.3    20  LEU20       0.0001
      8  CD2       -7.1360   -1.5870  -26.1990 C.3    20  LEU20       0.0001
      9  N         -3.2290   -6.4270  -28.4130 N.3    25  PRO25      -0.2102
     10  CA        -3.4830   -5.1450  -27.7340 C.3    25  PRO25       0.1504
     11  C         -2.5140   -3.9910  -28.0160 C.2    25  PRO25       0.2575
     12  O         -2.9600   -2.8520  -28.1180 O.2    25  PRO25      -0.2718
     13  CB        -3.4400   -5.5170  -26.2490 C.3    25  PRO25       0.0282
     14  CG        -2.6830   -6.7780  -26.1980 C.3    25  PRO25       0.0208
     15  CD        -3.0360   -7.5120  -27.4400 C.3    25  PRO25       0.0893
     16  N         -1.2150   -4.2650  -28.1200 N.am   26  VAL26      -0.1980
     17  CA        -0.2270   -3.1950  -28.3480 C.3    26  VAL26       0.1595
     18  C         -0.4390   -2.5560  -29.7210 C.2    26  VAL26       0.2287
     19  O         -0.2620   -1.3560  -29.8920 O.2    26  VAL26      -0.2864
     20  CB         1.2330   -3.7090  -28.2350 C.3    26  VAL26       0.0276
     21  CG1        2.2260   -2.5890  -28.4990 C.3    26  VAL26       0.0022
     22  CG2        1.4870   -4.3210  -26.8680 C.3    26  VAL26       0.0022
     23  N         -3.3170   -0.2500  -29.5930 N.3    29  LEU29      -0.1245
     24  CA        -2.8600    0.9650  -28.9230 C.3    29  LEU29       0.1561
     25  C         -2.0520    1.8470  -29.8660 C.2    29  LEU29       0.2260
     26  O         -2.2100    3.0750  -29.8820 O.2    29  LEU29      -0.2867
     27  CB        -2.0100    0.6110  -27.6970 C.3    29  LEU29       0.0270
     28  CG        -2.6870   -0.0720  -26.5070 C.3    29  LEU29       0.0019
     29  CD1       -1.6610   -0.5410  -25.5010 C.3    29  LEU29       0.0001
     30  CD2       -3.6940    0.8560  -25.8530 C.3    29  LEU29       0.0001
     31  N         -5.6790    6.2700  -21.0700 N.3    42  PHE42      -0.1241
     32  CA        -6.3760    4.9840  -21.1160 C.3    42  PHE42       0.1605
     33  C         -6.9130    4.6030  -19.7480 C.2    42  PHE42       0.2264
     34  O         -6.1590    4.5010  -18.7840 O.2    42  PHE42      -0.2867
     35  CB        -5.4780    3.8680  -21.6550 C.3    42  PHE42       0.0534
     36  CG        -6.2400    2.6460  -22.0990 C.ar   42  PHE42      -0.0203
     37  CD1       -6.5820    1.6490  -21.1890 C.ar   42  PHE42      -0.0042
     38  CD2       -6.6310    2.5010  -23.4220 C.ar   42  PHE42      -0.0042
     39  CE1       -7.2960    0.5330  -21.5940 C.ar   42  PHE42      -0.0003
     40  CE2       -7.3440    1.3870  -23.8320 C.ar   42  PHE42      -0.0003
     41  CZ        -7.6770    0.4040  -22.9200 C.ar   42  PHE42      -0.0000
     42  N         -8.1140    1.3730  -12.6480 N.3    47  ARG47      -0.1245
     43  CA        -6.7650    1.7690  -13.0650 C.3    47  ARG47       0.1563
     44  C         -6.7990    2.7470  -14.2280 C.2    47  ARG47       0.2260
     45  O         -7.6250    2.6330  -15.1300 O.2    47  ARG47      -0.2867
     46  CB        -5.8870    0.5490  -13.4050 C.3    47  ARG47       0.0307
     47  CG        -6.4050   -0.3520  -14.5250 C.3    47  ARG47       0.0489
     48  CD        -5.5470   -1.6030  -14.6630 C.3    47  ARG47       0.2205
     49  NE        -6.1120   -2.5650  -15.6100 N.pl3  47  ARG47      -0.0865
     50  CZ        -5.8340   -2.5980  -16.9120 C.cat  47  ARG47       0.5346
     51  NH1       -4.9910   -1.7190  -17.4380 N.pl3  47  ARG47       0.1354
     52  NH2       -6.4000   -3.5150  -17.6910 N.pl3  47  ARG47       0.1354
     53  N         -3.9580    4.8580  -16.8830 N.3    49  THR49      -0.1218
     54  CA        -2.5870    5.0910  -17.3580 C.3    49  THR49       0.1862
     55  C         -2.5530    5.9060  -18.6660 C.2    49  THR49       0.2287
     56  O         -3.5000    5.8700  -19.4550 O.2    49  THR49      -0.2866
     57  CB        -1.7700    3.7650  -17.4640 C.3    49  THR49       0.1770
     58  OG1       -0.4700    4.0340  -18.0130 O.3    49  THR49      -0.2211
     59  CG2       -2.4880    2.7180  -18.3200 C.3    49  THR49       0.0375
     60  N         -0.6570    6.8820  -22.2400 N.3    51  TYR51      -0.1241
     61  CA         0.2450    6.3570  -23.2610 C.3    51  TYR51       0.1605
     62  C          1.0300    7.4480  -24.0010 C.2    51  TYR51       0.2264
     63  O          0.4450    8.3140  -24.6600 O.2    51  TYR51      -0.2867
     64  CB        -0.5240    5.4530  -24.2380 C.3    51  TYR51       0.0534
     65  CG        -0.8060    4.0810  -23.6690 C.ar   51  TYR51      -0.0201
     66  CD1       -2.0070    3.8040  -23.0300 C.ar   51  TYR51      -0.0009
     67  CD2        0.1440    3.0680  -23.7540 C.ar   51  TYR51      -0.0009
     68  CE1       -2.2550    2.5570  -22.4950 C.ar   51  TYR51       0.0417
     69  CE2       -0.0940    1.8180  -23.2240 C.ar   51  TYR51       0.0417
     70  CZ        -1.2920    1.5710  -22.5940 C.ar   51  TYR51       0.1957
     71  OH        -1.5280    0.3260  -22.0670 O.3    51  TYR51      -0.2866
     72  N          3.2910   -1.8380  -14.0140 N.3    72  SER72      -0.1202
     73  CA         2.0560   -1.8560  -14.7800 C.3    72  SER72       0.2020
     74  C          1.1930   -3.0490  -14.3770 C.2    72  SER72       0.2619
     75  O          1.6880   -4.0170  -13.7990 O.2    72  SER72      -0.2717
     76  CB         2.3830   -1.9430  -16.2670 C.3    72  SER72       0.2103
     77  OG         3.1640   -3.0930  -16.5570 O.3    72  SER72      -0.2182
     78  N         -0.0990   -2.9750  -14.6870 N.am   73  GLN73      -0.1965
     79  CA        -0.9950   -4.1040  -14.4580 C.3    73  GLN73       0.1733
     80  C         -0.4610   -5.3350  -15.2000 C.2    73  GLN73       0.2616
     81  O         -0.5010   -6.4510  -14.6730 O.2    73  GLN73      -0.2715
     82  CB        -2.4340   -3.7520  -14.8570 C.3    73  GLN73       0.0408
     83  CG        -3.5070   -4.7810  -14.4790 C.3    73  GLN73       0.0908
     84  CD        -3.6310   -5.0520  -12.9770 C.2    73  GLN73       0.2608
     85  OE1       -2.8320   -5.7860  -12.3970 O.2    73  GLN73      -0.2717
     86  NE2       -4.6620   -4.4880  -12.3580 N.am   73  GLN73      -0.0878
     87  N          0.0690   -5.1090  -16.4040 N.am   74  ALA74      -0.1963
     88  CA         0.8050   -6.1240  -17.1580 C.3    74  ALA74       0.1728
     89  C          1.8960   -6.8060  -16.3310 C.2    74  ALA74       0.2616
     90  O          1.9450   -8.0250  -16.2660 O.2    74  ALA74      -0.2715
     91  CB         1.4040   -5.5140  -18.4060 C.3    74  ALA74       0.0334
     92  N          2.7650   -6.0200  -15.6970 N.am   75  LEU75      -0.1977
     93  CA         3.8630   -6.5910  -14.9150 C.3    75  LEU75       0.1596
     94  C          3.3510   -7.2810  -13.6670 C.2    75  LEU75       0.2287
     95  O          3.8450   -8.3520  -13.3000 O.2    75  LEU75      -0.2864
     96  CB         4.9140   -5.5430  -14.5380 C.3    75  LEU75       0.0297
     97  CG         5.8930   -5.0170  -15.5980 C.3    75  LEU75       0.0022
     98  CD1        7.0340   -4.2830  -14.9110 C.3    75  LEU75       0.0001
     99  CD2        6.4450   -6.1150  -16.5220 C.3    75  LEU75       0.0001
    100  N          2.1470  -10.7430  -14.3350 N.3    78  VAL78      -0.1245
    101  CA         3.3620  -11.5300  -14.5380 C.3    78  VAL78       0.1561
    102  C          4.0420  -11.8830  -13.2080 C.2    78  VAL78       0.2260
    103  O          4.6730  -12.9350  -13.0910 O.2    78  VAL78      -0.2867
    104  CB         4.3270  -10.8000  -15.5140 C.3    78  VAL78       0.0252
    105  CG1        5.7580  -11.2880  -15.3810 C.3    78  VAL78       0.0019
    106  CG2        3.8530  -10.9910  -16.9370 C.3    78  VAL78       0.0019
    107  N          7.0710  -14.4400  -11.8400 N.3    82  PHE82      -0.1241
    108  CA         8.2960  -13.6500  -11.7300 C.3    82  PHE82       0.1605
    109  C          8.5610  -13.2020  -10.2950 C.2    82  PHE82       0.2264
    110  O          9.7010  -12.8920   -9.9530 O.2    82  PHE82      -0.2867
    111  CB         8.2280  -12.4150  -12.6330 C.3    82  PHE82       0.0534
    112  CG         8.7250  -12.6390  -14.0370 C.ar   82  PHE82      -0.0203
    113  CD1        8.5510  -13.8560  -14.6830 C.ar   82  PHE82      -0.0042
    114  CD2        9.3340  -11.6060  -14.7330 C.ar   82  PHE82      -0.0042
    115  CE1        9.0020  -14.0430  -15.9890 C.ar   82  PHE82      -0.0003
    116  CE2        9.7850  -11.7900  -16.0350 C.ar   82  PHE82      -0.0003
    117  CZ         9.6150  -13.0110  -16.6630 C.ar   82  PHE82      -0.0000
    118  N         12.8560   -7.8010  -12.8940 N.3    87  PHE87      -0.1241
    119  CA        11.9110   -7.2440  -13.8630 C.3    87  PHE87       0.1605
    120  C         10.6460   -6.7020  -13.1890 C.2    87  PHE87       0.2264
    121  O         10.0350   -5.7470  -13.6840 O.2    87  PHE87      -0.2867
    122  CB        11.5330   -8.3010  -14.9070 C.3    87  PHE87       0.0534
    123  CG        11.2910   -7.7430  -16.2900 C.ar   87  PHE87      -0.0203
    124  CD1       10.1630   -6.9730  -16.5680 C.ar   87  PHE87      -0.0042
    125  CD2       12.1840   -8.0070  -17.3220 C.ar   87  PHE87      -0.0042
    126  CE1        9.9350   -6.4610  -17.8560 C.ar   87  PHE87      -0.0003
    127  CE2       11.9670   -7.5070  -18.6150 C.ar   87  PHE87      -0.0003
    128  CZ        10.8380   -6.7300  -18.8810 C.ar   87  PHE87      -0.0000
    129  N          2.1680  -16.0770  -20.2000 N.3   181  LEU181     -0.1245
    130  CA         2.2000  -14.7060  -20.7000 C.3   181  LEU181      0.1561
    131  C          0.9170  -14.3270  -21.4400 C.2   181  LEU181      0.2260
    132  O          0.4840  -13.1700  -21.3940 O.2   181  LEU181     -0.2867
    133  CB         3.4160  -14.4810  -21.5990 C.3   181  LEU181      0.0270
    134  CG         4.7920  -14.4500  -20.9240 C.3   181  LEU181      0.0019
    135  CD1        5.8960  -14.4310  -21.9740 C.3   181  LEU181      0.0001
    136  CD2        4.9360  -13.2700  -19.9610 C.3   181  LEU181      0.0001
    137  N         -1.8850  -11.5050  -20.5260 N.3   185  MET185     -0.1245
    138  CA        -2.2780  -10.5240  -21.5220 C.3   185  MET185      0.1570
    139  C         -3.8040  -10.4530  -21.6330 C.2   185  MET185      0.2261
    140  O         -4.3760   -9.3590  -21.7390 O.2   185  MET185     -0.2867
    141  CB        -1.6340  -10.8440  -22.8690 C.3   185  MET185      0.0387
    142  CG        -1.7340   -9.7160  -23.8830 C.3   185  MET185      0.0595
    143  SD        -1.1120  -10.2080  -25.4940 S.3   185  MET185     -0.1393
    144  CE        -2.3850  -11.3740  -26.0060 C.3   185  MET185      0.0692
    145  N         -6.0120   -8.6470  -18.7730 N.3   188  LEU188     -0.1245
    146  CA        -6.1200   -7.1940  -18.8820 C.3   188  LEU188      0.1561
    147  C         -7.3920   -6.7460  -19.5820 C.2   188  LEU188      0.2260
    148  O         -7.8200   -5.6050  -19.4200 O.2   188  LEU188     -0.2867
    149  CB        -4.9220   -6.6380  -19.6490 C.3   188  LEU188      0.0270
    150  CG        -3.5420   -6.7660  -19.0140 C.3   188  LEU188      0.0019
    151  CD1       -2.4690   -6.8140  -20.0910 C.3   188  LEU188      0.0001
    152  CD2       -3.2990   -5.6190  -18.0540 C.3   188  LEU188      0.0001
    153  N         12.9790  -16.4830  -18.8420 N.3   263  ILE263     -0.1231
    154  CA        11.9770  -15.8620  -19.6960 C.3   263  ILE263      0.1692
    155  C         12.4930  -14.5530  -20.2990 C.2   263  ILE263      0.2591
    156  O         12.5740  -14.4210  -21.5210 O.2   263  ILE263     -0.2718
    157  CB        10.6480  -15.6700  -18.9380 C.3   263  ILE263      0.0266
    158  CG1       10.0780  -17.0420  -18.5520 C.3   263  ILE263      0.0019
    159  CG2        9.6480  -14.8630  -19.7750 C.3   263  ILE263      0.0020
    160  CD1        8.9500  -17.0160  -17.5460 C.3   263  ILE263      0.0001
    161  N         12.8600  -13.6030  -19.4420 N.am  264  ALA264     -0.1980
    162  CA        13.4030  -12.3140  -19.8810 C.3   264  ALA264      0.1597
    163  C         14.7520  -12.4390  -20.5790 C.2   264  ALA264      0.2287
    164  O         15.1360  -11.5680  -21.3510 O.2   264  ALA264     -0.2864
    165  CB        13.5110  -11.3470  -18.7050 C.3   264  ALA264      0.0319
    166  N         13.1770  -14.7650  -24.4590 N.3   267  GLU267     -0.1231
    167  CA        11.9860  -14.4320  -25.2430 C.3   267  GLU267      0.1699
    168  C         12.2330  -13.2710  -26.1910 C.2   267  GLU267      0.2592
    169  O         12.1050  -13.4220  -27.4040 O.2   267  GLU267     -0.2718
    170  CB        10.7910  -14.1530  -24.3230 C.3   267  GLU267      0.0402
    171  CG         9.5620  -13.5110  -24.9840 C.3   267  GLU267      0.1161
    172  CD         8.8350  -14.4170  -25.9630 C.2   267  GLU267      0.3649
    173  OE1        8.0450  -13.8910  -26.7740 O.co2 267  GLU267     -0.2457
    174  OE2        9.0460  -15.6440  -25.9270 O.co2 267  GLU267     -0.2457
    175  N         12.6170  -12.1330  -25.6260 N.am  268  THR268     -0.1953
    176  CA        12.7970  -10.8970  -26.3790 C.3   268  THR268      0.1897
    177  C         13.9330  -10.9440  -27.4060 C.2   268  THR268      0.2313
    178  O         13.9430  -10.1590  -28.3560 O.2   268  THR268     -0.2863
    179  CB        13.0490   -9.7240  -25.4350 C.3   268  THR268      0.1794
    180  OG1       14.0450  -10.1000  -24.4760 O.3   268  THR268     -0.2208
    181  CG2       11.7650   -9.3220  -24.7250 C.3   268  THR268      0.0378
    182  N         10.0470   -5.9810  -26.3380 N.3   328  ALA328     -0.1231
    183  CA         9.3400   -5.6560  -25.1030 C.3   328  ALA328      0.1679
    184  C          8.6940   -4.2930  -25.3180 C.2   328  ALA328      0.2434
    185  O          9.2550   -3.2730  -24.9350 O.2   328  ALA328     -0.2733
    186  CB        10.2950   -5.6290  -23.9210 C.3   328  ALA328      0.0304
    187  N          7.4940   -4.2770  -25.9240 N.am  329  PRO329     -0.2718
    188  CA         6.9480   -3.1020  -26.6140 C.3   329  PRO329      0.1535
    189  C          6.6690   -1.8890  -25.7330 C.2   329  PRO329      0.2598
    190  O          6.4860   -0.7870  -26.2540 O.2   329  PRO329     -0.2715
    191  CB         5.6390   -3.6240  -27.2100 C.3   329  PRO329      0.0310
    192  CG         5.2640   -4.7600  -26.3530 C.3   329  PRO329      0.0237
    193  CD         6.5490   -5.4070  -25.9480 C.3   329  PRO329      0.0939
    194  N          6.6470   -2.0790  -24.4190 N.am  330  ALA330     -0.1978
    195  CA         6.2460   -1.0040  -23.5190 C.3   330  ALA330      0.1597
    196  C          6.9410   -1.0560  -22.1640 C.2   330  ALA330      0.2287
    197  O          7.3460   -2.1180  -21.7100 O.2   330  ALA330     -0.2864
    198  CB         4.7360   -1.0320  -23.3310 C.3   330  ALA330      0.0319
    199  N          2.6500    5.1830  -19.5320 N.3   354  MET354     -0.1245
    200  CA         3.1070    4.0670  -20.3470 C.3   354  MET354      0.1570
    201  C          3.8290    4.5800  -21.5790 C.2   354  MET354      0.2261
    202  O          3.2860    5.4040  -22.3200 O.2   354  MET354     -0.2867
    203  CB         1.9400    3.1740  -20.7520 C.3   354  MET354      0.0387
    204  CG         1.7870    1.9260  -19.8940 C.3   354  MET354      0.0595
    205  SD         3.1030    0.7240  -20.1880 S.3   354  MET354     -0.1393
    206  CE         2.2470   -0.7900  -19.7670 C.3   354  MET354      0.0692
    207  N          4.9470    3.8360  -25.0900 N.3   356  LEU356     -0.1245
    208  CA         4.7200    2.9800  -26.2380 C.3   356  LEU356      0.1561
    209  C          5.9180    3.0730  -27.1850 C.2   356  LEU356      0.2260
    210  O          5.9320    3.8720  -28.1360 O.2   356  LEU356     -0.2867
    211  CB         3.4080    3.3450  -26.9390 C.3   356  LEU356      0.0270
    212  CG         2.7260    2.2170  -27.7200 C.3   356  LEU356      0.0019
    213  CD1        2.4830    1.0060  -26.8390 C.3   356  LEU356      0.0001
    214  CD2        1.4210    2.7020  -28.3270 C.3   356  LEU356      0.0001
    215  N          2.3030  -10.2500  -24.3900 N.3   437  LEU437     -0.1231
    216  CA         2.9730   -9.0620  -23.8450 C.3   437  LEU437      0.1693
    217  C          4.1430   -8.7050  -24.7650 C.2   437  LEU437      0.2592
    218  O          4.1940   -7.6030  -25.3020 O.2   437  LEU437     -0.2718
    219  CB         3.4250   -9.2480  -22.3880 C.3   437  LEU437      0.0284
    220  CG         2.3800   -9.6070  -21.3220 C.3   437  LEU437      0.0019
    221  CD1        3.0820   -9.8780  -20.0150 C.3   437  LEU437      0.0001
    222  CD2        1.3000   -8.5360  -21.1390 C.3   437  LEU437      0.0001
    223  N          5.0510   -9.6600  -24.9680 N.am  438  THR438     -0.1953
    224  CA         6.1580   -9.5110  -25.9070 C.3   438  THR438      0.1897
    225  C          5.6980   -9.6600  -27.3580 C.2   438  THR438      0.2313
    226  O          4.5710  -10.0830  -27.6180 O.2   438  THR438     -0.2863
    227  CB         7.2750  -10.5300  -25.6320 C.3   438  THR438      0.1794
    228  OG1        6.7370  -11.8530  -25.6830 O.3   438  THR438     -0.2208
    229  CG2        7.9130  -10.2910  -24.2730 C.3   438  THR438      0.0378
@<TRIPOS>BOND
     1    19    18    2
     2    26    25    2
     3    25    24    1
     4    18    17    1
     5    23    24    1
     6    24    27    1
     7    21    20    1
     8     9    10    1
     9     9    15    1
    10   178   177    2
    11    17    20    1
    12    17    16    1
    13   214   212    1
    14    20    22    1
    15   210   209    2
    16    16    11   am
    17    12    11    2
    18    11    10    1
    19    10    13    1
    20   212   211    1
    21   212   213    1
    22    27    28    1
    23   226   225    2
    24    15    14    1
    25   177   176    1
    26   169   168    2
    27   225   224    1
    28   191   188    1
    29   191   192    1
    30   209   208    1
    31   211   208    1
    32   173   172   ar
    33   188   187    1
    34   188   189    1
    35    28    30    1
    36    28    29    1
    37   176   175    1
    38   176   179    1
    39   192   193    1
    40   182   183    1
    41   190   189    2
    42    13    14    1
    43   208   207    1
    44     2     1    1
    45     2     3    1
    46     2     5    1
    47     8     6    1
    48   168   175   am
    49   168   167    1
    50     3     4    2
    51   144   143    1
    52   172   174   ar
    53   172   171    1
    54   193   187    1
    55   187   184   am
    56   224   227    1
    57   224   223    1
    58   189   194   am
    59   228   227    1
    60   227   229    1
    61   143   142    1
    62     6     5    1
    63     6     7    1
    64   179   181    1
    65   179   180    1
    66   184   183    1
    67   184   185    2
    68   218   217    2
    69   167   166    1
    70   167   170    1
    71   183   186    1
    72   171   170    1
    73   223   217   am
    74   217   216    1
    75    63    62    2
    76   194   195    1
    77   215   216    1
    78    64    65    1
    79    64    61    1
    80    62    61    1
    81   142   141    1
    82   216   219    1
    83    40    38   ar
    84    40    41   ar
    85    67    65   ar
    86    67    69   ar
    87    65    66   ar
    88   195   198    1
    89   195   196    1
    90    38    36   ar
    91    61    60    1
    92    69    70   ar
    93    66    68   ar
    94    41    39   ar
    95   141   138    1
    96    70    68   ar
    97    70    71    1
    98   219   220    1
    99   202   201    2
   100   196   197    2
   101    36    35    1
   102    36    37   ar
   103   135   134    1
   104   140   139    2
   105    35    32    1
   106   139   138    1
   107   133   134    1
   108   133   130    1
   109    39    37   ar
   110   201   200    1
   111   138   137    1
   112   156   155    2
   113   131   132    2
   114   131   130    1
   115   164   163    2
   116   220   222    1
   117   220   221    1
   118    32    31    1
   119    32    33    1
   120   134   136    1
   121   203   200    1
   122   203   204    1
   123   130   129    1
   124   163   162    1
   125   200   199    1
   126   155   154    1
   127   155   161   am
   128   205   204    1
   129   205   206    1
   130   151   150    1
   131   162   161    1
   132   162   165    1
   133   159   157    1
   134    33    34    2
   135   154   157    1
   136   154   153    1
   137   149   150    1
   138   149   146    1
   139   147   148    2
   140   147   146    1
   141    56    55    2
   142   150   152    1
   143   157   158    1
   144   146   145    1
   145   128   127   ar
   146   128   126   ar
   147    55    54    1
   148   127   125   ar
   149   158   160    1
   150    91    88    1
   151    59    57    1
   152    58    57    1
   153   126   124   ar
   154    52    50    1
   155    57    54    1
   156    51    50    1
   157    54    53    1
   158   125   123   ar
   159    88    87    1
   160    88    89    1
   161   106   104    1
   162    50    49    2
   163   117   116   ar
   164   117   115   ar
   165   124   123   ar
   166    77    76    1
   167    99    97    1
   168    87    80   am
   169    89    90    2
   170    89    92   am
   171   123   122    1
   172    76    73    1
   173   116   114   ar
   174   115   113   ar
   175    92    93    1
   176    49    48    1
   177    97    98    1
   178    97    96    1
   179   104   105    1
   180   104   101    1
   181    80    81    2
   182    80    79    1
   183    45    44    2
   184    93    96    1
   185    93    94    1
   186   122   119    1
   187    82    83    1
   188    82    79    1
   189    73    74    1
   190    73    72    1
   191   114   112   ar
   192    78    79    1
   193    78    74   am
   194   113   112   ar
   195    48    47    1
   196   101   100    1
   197   101   102    1
   198    47    46    1
   199    83    84    1
   200    74    75    2
   201    44    43    1
   202   112   111    1
   203   119   120    1
   204   119   118    1
   205   121   120    2
   206    94    95    2
   207    46    43    1
   208   102   103    2
   209    43    42    1
   210    84    85    2
   211    84    86   am
   212   111   108    1
   213   107   108    1
   214   108   109    1
   215   109   110    2
