@<TRIPOS>MOLECULE
tmp/2uwoA00.pdb
 175 174 0 0 0
SMALL
GASTEIGER

@<TRIPOS>ATOM
      1  N         13.5180   11.3580   14.1740 N.3    42  HIS42      -0.1241
      2  CA        12.0550   11.3530   14.2760 C.3    42  HIS42       0.1621
      3  C         11.4480   12.6990   14.6950 C.2    42  HIS42       0.2264
      4  O         10.2630   12.9710   14.4400 O.2    42  HIS42      -0.2867
      5  CB        11.5660   10.1890   15.1530 C.3    42  HIS42       0.0745
      6  CG        11.4680   10.5000   16.6160 C.ar   42  HIS42       0.0817
      7  ND1       12.4030   10.0700   17.5290 N.ar   42  HIS42      -0.2268
      8  CD2       10.5100   11.1350   17.3320 C.ar   42  HIS42       0.1154
      9  CE1       12.0540   10.4680   18.7400 C.ar   42  HIS42       0.1986
     10  NE2       10.9080   11.1180   18.6510 N.ar   42  HIS42      -0.2212
     11  N         10.8700    5.0120   10.1760 N.3    80  LYS80      -0.1231
     12  CA         9.7430    5.3090   11.0560 C.3    80  LYS80       0.1693
     13  C          9.1770    4.0590   11.7350 C.2    80  LYS80       0.2592
     14  O          8.5110    4.1560   12.7720 O.2    80  LYS80      -0.2718
     15  CB         8.6110    6.0090   10.2950 C.3    80  LYS80       0.0285
     16  CG         8.8510    7.4550    9.9060 C.3    80  LYS80       0.0035
     17  CD         7.5630    8.0510    9.3200 C.3    80  LYS80       0.0206
     18  CE         7.6660    9.5510    9.0920 C.3    80  LYS80       0.1093
     19  NZ         6.3620   10.1110    8.6140 N.3    80  LYS80      -0.1314
     20  N          9.4450    2.8890   11.1590 N.am   81  GLU81      -0.1966
     21  CA         8.8640    1.6490   11.6580 C.3    81  GLU81       0.1733
     22  C          9.4840    1.0320   12.8990 C.2    81  GLU81       0.2617
     23  O          8.7740    0.4080   13.7000 O.2    81  GLU81      -0.2715
     24  CB         8.7200    0.6250   10.5250 C.3    81  GLU81       0.0429
     25  CG         7.7980    1.1530    9.4130 C.3    81  GLU81       0.1163
     26  CD         7.2100    0.0580    8.5570 C.2    81  GLU81       0.3649
     27  OE1        7.8080   -1.0410    8.4810 O.co2  81  GLU81      -0.2457
     28  OE2        6.1380    0.2990    7.9600 O.co2  81  GLU81      -0.2457
     29  N         10.7920    1.2100   13.0690 N.am   82  THR82      -0.1937
     30  CA        11.4920    0.6800   14.2320 C.3    82  THR82       0.2028
     31  C         12.2380    1.7830   15.0120 C.2    82  THR82       0.2642
     32  O         12.7160    1.5150   16.0990 O.2    82  THR82      -0.2714
     33  CB        12.5530   -0.3830   13.8490 C.3    82  THR82       0.1808
     34  OG1       13.5390    0.2070   12.9920 O.3    82  THR82      -0.2208
     35  CG2       11.9120   -1.6050   13.1320 C.3    82  THR82       0.0379
     36  N         12.2900    2.9950   14.4570 N.am   83  TYR83      -0.1973
     37  CA        13.1230    4.1150   15.0130 C.3    83  TYR83       0.1639
     38  C         14.6240    3.7890   15.0140 C.2    83  TYR83       0.2290
     39  O         15.4160    4.3870   15.7510 O.2    83  TYR83      -0.2864
     40  CB        12.6100    4.6170   16.3780 C.3    83  TYR83       0.0560
     41  CG        11.5000    5.6500   16.2760 C.ar   83  TYR83      -0.0198
     42  CD1       10.7150    5.7440   15.1160 C.ar   83  TYR83      -0.0009
     43  CD2       11.1680    6.4660   17.3640 C.ar   83  TYR83      -0.0009
     44  CE1        9.6880    6.6470   15.0130 C.ar   83  TYR83       0.0417
     45  CE2       10.1260    7.3750   17.2640 C.ar   83  TYR83       0.0417
     46  CZ         9.3900    7.4530   16.0760 C.ar   83  TYR83       0.1957
     47  OH         8.3540    8.3450   15.9350 O.3    83  TYR83      -0.2866
     48  N          2.9520   10.6550   32.0630 N.3   133  GLU133     -0.1245
     49  CA         2.6500   10.1210   30.7270 C.3   133  GLU133      0.1567
     50  C          1.6180   10.9690   29.9890 C.2   133  GLU133      0.2260
     51  O          1.7530   11.2240   28.8010 O.2   133  GLU133     -0.2867
     52  CB         2.2790    8.6380   30.7530 C.3   133  GLU133      0.0388
     53  CG         2.2480    8.0390   29.3680 C.3   133  GLU133      0.1160
     54  CD         2.0190    6.5480   29.3650 C.2   133  GLU133      0.3649
     55  OE1        2.7300    5.8020   30.0790 O.co2 133  GLU133     -0.2457
     56  OE2        1.1210    6.1180   28.6130 O.co2 133  GLU133     -0.2457
     57  N          9.0440   -4.2280   21.1560 N.3   160  PHE160     -0.1241
     58  CA         9.5850   -3.8020   19.8690 C.3   160  PHE160      0.1605
     59  C         11.0740   -4.1280   19.8190 C.2   160  PHE160      0.2264
     60  O         11.7400   -4.1830   20.8590 O.2   160  PHE160     -0.2867
     61  CB         9.4000   -2.2910   19.6710 C.3   160  PHE160      0.0534
     62  CG         7.9610   -1.8280   19.6660 C.ar  160  PHE160     -0.0203
     63  CD1        7.2890   -1.5790   20.8600 C.ar  160  PHE160     -0.0042
     64  CD2        7.2900   -1.6110   18.4650 C.ar  160  PHE160     -0.0042
     65  CE1        5.9640   -1.1430   20.8560 C.ar  160  PHE160     -0.0003
     66  CE2        5.9670   -1.1720   18.4450 C.ar  160  PHE160     -0.0003
     67  CZ         5.3030   -0.9370   19.6480 C.ar  160  PHE160     -0.0000
     68  N         11.4300    8.4510   34.2240 N.3   177  ASP177     -0.1225
     69  CA        11.7950    8.1710   32.8260 C.3   177  ASP177      0.1805
     70  C         11.7570    9.4630   32.0300 C.2   177  ASP177      0.2598
     71  O         11.2540   10.4750   32.5120 O.2   177  ASP177     -0.2718
     72  CB        10.7100    7.2390   32.2510 C.3   177  ASP177      0.1424
     73  CG        11.1430    6.4540   31.0080 C.2   177  ASP177      0.3668
     74  OD1       12.2920    6.5840   30.5360 O.co2 177  ASP177     -0.2456
     75  OD2       10.3030    5.6680   30.5180 O.co2 177  ASP177     -0.2456
     76  N         12.2980    9.4260   30.8090 N.am  178  ALA178     -0.1966
     77  CA        12.1140   10.5100   29.8540 C.3   178  ALA178      0.1728
     78  C         10.6720   10.2880   29.3920 C.2   178  ALA178      0.2616
     79  O         10.0630    9.2460   29.7220 O.2   178  ALA178     -0.2715
     80  CB        13.0820   10.3950   28.6700 C.3   178  ALA178      0.0334
     81  N         10.1490   11.2220   28.6240 N.am  179  CYS179     -0.1954
     82  CA         8.7660   11.1370   28.1630 C.3   179  CYS179      0.1843
     83  C          8.5870   12.0030   26.9450 C.2   179  CYS179      0.2625
     84  O          9.5510   12.5960   26.4620 O.2   179  CYS179     -0.2714
     85  CB         7.8290   11.5540   29.3160 C.3   179  CYS179      0.0997
     86  SG         6.0490   11.0350   29.1060 S.3   179  CYS179     -0.0797
     87  N          7.3600   12.0740   26.4110 N.am  180  GLN180     -0.1977
     88  CA         7.0580   12.8560   25.2120 C.3   180  GLN180      0.1601
     89  C          7.5810   14.2900   25.2830 C.2   180  GLN180      0.2287
     90  O          7.3140   14.9890   26.2700 O.2   180  GLN180     -0.2864
     91  CB         5.5240   12.8800   25.0330 C.3   180  GLN180      0.0394
     92  CG         5.0050   13.6580   23.8310 C.3   180  GLN180      0.0908
     93  CD         5.3040   13.0110   22.4950 C.2   180  GLN180      0.2608
     94  OE1        5.5820   13.7050   21.5130 O.2   180  GLN180     -0.2717
     95  NE2        5.2440   11.6840   22.4380 N.am  180  GLN180     -0.0878
     96  N         12.3580   13.6190   23.5060 N.3   183  SER183     -0.1217
     97  CA        13.0390   13.0260   22.3700 C.3   183  SER183      0.1889
     98  C         14.0400   13.9840   21.7260 C.2   183  SER183      0.2288
     99  O         13.7900   15.1910   21.6200 O.2   183  SER183     -0.2866
    100  CB        12.0190   12.6090   21.2830 C.3   183  SER183      0.2089
    101  OG        11.1840   11.5680   21.7400 O.3   183  SER183     -0.2183
    102  N         17.7350   10.7810   23.3570 N.3   201  VAL201     -0.1231
    103  CA        16.4110   10.2830   23.8010 C.3   201  VAL201      0.1692
    104  C         15.6490    9.8780   22.5410 C.2   201  VAL201      0.2593
    105  O         15.4710   10.6940   21.6070 O.2   201  VAL201     -0.2718
    106  CB        15.6330   11.3670   24.5630 C.3   201  VAL201      0.0266
    107  CG1       14.2660   10.8430   24.9750 C.3   201  VAL201      0.0020
    108  CG2       16.4320   11.8300   25.8340 C.3   201  VAL201      0.0020
    109  N         15.1860    8.6230   22.4990 N.am  202  SER202     -0.1938
    110  CA        14.5680    8.1320   21.2710 C.3   202  SER202      0.2055
    111  C         13.1030    7.6880   21.4270 C.2   202  SER202      0.2643
    112  O         12.2000    8.3050   20.8400 O.2   202  SER202     -0.2714
    113  CB        15.4270    7.0340   20.6510 C.3   202  SER202      0.2130
    114  OG        14.8750    6.5800   19.4300 O.3   202  SER202     -0.2179
    115  N         12.8610    6.6380   22.1930 N.am  203  TRP203     -0.1959
    116  CA        11.4670    6.1580   22.3560 C.3   203  TRP203      0.1771
    117  C         11.2570    5.3130   23.6040 C.2   203  TRP203      0.2620
    118  O         12.2060    4.9500   24.2900 O.2   203  TRP203     -0.2715
    119  CB        11.0460    5.3920   21.0810 C.3   203  TRP203      0.0590
    120  CG        11.8440    4.1480   20.7710 C.ar  203  TRP203      0.0006
    121  CD1       12.9720    4.0650   19.9940 C.ar  203  TRP203      0.0946
    122  CD2       11.5270    2.7950   21.1670 C.ar  203  TRP203      0.0152
    123  NE1       13.4130    2.7560   19.9420 N.ar  203  TRP203     -0.2442
    124  CE2       12.5380    1.9620   20.6440 C.ar  203  TRP203      0.0810
    125  CE3       10.5040    2.2170   21.9620 C.ar  203  TRP203      0.0012
    126  CZ2       12.5460    0.5610   20.8490 C.ar  203  TRP203      0.0191
    127  CZ3       10.5240    0.8270   22.1860 C.ar  203  TRP203      0.0001
    128  CH2       11.5370    0.0200   21.6220 C.ar  203  TRP203      0.0015
    129  N          9.9940    4.9900   23.9000 N.am  204  GLY204     -0.1940
    130  CA         9.6870    4.1440   25.0570 C.3   204  GLY204      0.2014
    131  C          8.2360    3.7000   24.8790 C.2   204  GLY204      0.2639
    132  O          7.4720    4.3300   24.1150 O.2   204  GLY204     -0.2714
    133  N          7.8790    2.6060   25.5340 N.am  205  GLU205     -0.1963
    134  CA         6.4880    2.1410   25.5040 C.3   205  GLU205      0.1733
    135  C          5.7890    2.8930   26.6400 C.2   205  GLU205      0.2617
    136  O          5.7250    2.4090   27.7770 O.2   205  GLU205     -0.2715
    137  CB         6.4610    0.6320   25.6930 C.3   205  GLU205      0.0429
    138  CG         7.1800   -0.0960   24.5820 C.3   205  GLU205      0.1163
    139  CD         7.0550   -1.6060   24.6800 C.2   205  GLU205      0.3649
    140  OE1        5.9120   -2.0890   24.8210 O.co2 205  GLU205     -0.2457
    141  OE2        8.0940   -2.3020   24.6010 O.co2 205  GLU205     -0.2457
    142  N          5.2870    4.0830   26.3310 N.am  206  GLY206     -0.1940
    143  CA         4.7280    4.9410   27.3850 C.3   206  GLY206      0.2014
    144  C          5.8560    5.5930   28.1700 C.2   206  GLY206      0.2639
    145  O          7.0020    5.6110   27.7080 O.2   206  GLY206     -0.2714
    146  N          5.5520    6.1350   29.3520 N.am  207  CYS207     -0.1967
    147  CA         6.5830    6.7610   30.1540 C.3   207  CYS207      0.1712
    148  C          6.5790    6.2090   31.5560 C.2   207  CYS207      0.2296
    149  O          5.5250    6.2050   32.2200 O.2   207  CYS207     -0.2864
    150  CB         6.3820    8.2940   30.1910 C.3   207  CYS207      0.0983
    151  SG         6.1750    9.0680   28.5960 S.3   207  CYS207     -0.0798
    152  N         13.6090    3.2260   29.0450 N.3   214  GLY214     -0.1210
    153  CA        13.7500    4.1980   27.9950 C.3   214  GLY214      0.1956
    154  C         14.7430    3.6730   26.9680 C.2   214  GLY214      0.2612
    155  O         15.7430    3.0310   27.3290 O.2   214  GLY214     -0.2717
    156  N         14.4920    3.9970   25.7080 N.am  215  ILE215     -0.1965
    157  CA        15.3320    3.5470   24.6090 C.3   215  ILE215      0.1727
    158  C         16.0100    4.7600   23.9970 C.2   215  ILE215      0.2616
    159  O         15.3580    5.7680   23.6420 O.2   215  ILE215     -0.2715
    160  CB        14.5470    2.7500   23.5270 C.3   215  ILE215      0.0290
    161  CG1       13.5880    1.7320   24.1980 C.3   215  ILE215      0.0022
    162  CG2       15.5410    2.0890   22.5140 C.3   215  ILE215      0.0023
    163  CD1       14.2470    0.7910   25.2020 C.3   215  ILE215      0.0001
    164  N         17.3230    4.6370   23.8600 N.am  216  TYR216     -0.1974
    165  CA        18.1190    5.7690   23.3780 C.3   216  TYR216      0.1639
    166  C         18.9470    5.3920   22.2010 C.2   216  TYR216      0.2290
    167  O         19.4370    4.2540   22.1760 O.2   216  TYR216     -0.2864
    168  CB        19.1020    6.1220   24.4930 C.3   216  TYR216      0.0560
    169  CG        18.4200    6.6400   25.7320 C.ar  216  TYR216     -0.0198
    170  CD1       17.8080    5.7560   26.6420 C.ar  216  TYR216     -0.0009
    171  CD2       18.4150    7.9950   26.0140 C.ar  216  TYR216     -0.0009
    172  CE1       17.1580    6.2350   27.7640 C.ar  216  TYR216      0.0417
    173  CE2       17.7760    8.4830   27.1380 C.ar  216  TYR216      0.0417
    174  CZ        17.1250    7.5980   27.9930 C.ar  216  TYR216      0.1957
    175  OH        16.4960    8.1140   29.1110 O.3   216  TYR216     -0.2866
@<TRIPOS>BOND
     1    28    26   ar
     2    27    26   ar
     3    26    25    1
     4    19    18    1
     5    18    17    1
     6    17    16    1
     7    25    24    1
     8    16    15    1
     9    11    12    1
    10    15    12    1
    11    24    21    1
    12    12    13    1
    13    20    21    1
    14    20    13   am
    15    21    22    1
    16    13    14    2
    17    22    29   am
    18    22    23    2
    19    34    33    1
    20    29    30    1
    21    35    33    1
    22    33    30    1
    23     1     2    1
    24    30    31    1
    25     2     3    1
    26     2     5    1
    27     4     3    2
    28    36    31   am
    29    36    37    1
    30    31    32    2
    31    44    42   ar
    32    44    46   ar
    33    37    38    1
    34    37    40    1
    35    38    39    2
    36    42    41   ar
    37     5     6    1
    38    47    46    1
    39    46    45   ar
    40    41    40    1
    41    41    43   ar
    42     6     8   ar
    43     6     7   ar
    44    45    43   ar
    45     8    10   ar
    46     7     9   ar
    47    66    64   ar
    48    66    67   ar
    49    64    62   ar
    50    10     9   ar
    51   114   113    1
    52    67    65   ar
    53    62    61    1
    54    62    63   ar
    55    61    58    1
    56    59    58    1
    57    59    60    2
    58    58    57    1
    59   123   121   ar
    60   123   124   ar
    61   121   120   ar
    62   124   126   ar
    63   124   122   ar
    64   113   110    1
    65   120   119    1
    66   120   122   ar
    67   112   111    2
    68   126   128   ar
    69    65    63   ar
    70   119   116    1
    71   122   125   ar
    72   110   111    1
    73   110   109    1
    74   100   101    1
    75   100    97    1
    76   111   115   am
    77    94    93    2
    78   105   104    2
    79    99    98    2
    80   128   127   ar
    81    98    97    1
    82   125   127   ar
    83   167   166    2
    84   115   116    1
    85   166   165    1
    86   116   117    1
    87    97    96    1
    88    95    93   am
    89    93    92    1
    90   109   104   am
    91   162   160    1
    92   104   103    1
    93   102   103    1
    94   165   164    1
    95   165   168    1
    96   160   161    1
    97   160   157    1
    98   117   129   am
    99   117   118    2
   100   159   158    2
   101   103   106    1
   102    92    91    1
   103   164   158   am
   104   129   130    1
   105   158   157    1
   106   132   131    2
   107   161   163    1
   108   168   169    1
   109   106   107    1
   110   106   108    1
   111   138   139    1
   112   138   137    1
   113   141   139   ar
   114   157   156    1
   115   139   140   ar
   116   131   130    1
   117   131   133   am
   118    91    88    1
   119    88    89    1
   120    88    87    1
   121    89    90    2
   122   134   133    1
   123   134   137    1
   124   134   135    1
   125   156   154   am
   126   169   171   ar
   127   169   170   ar
   128   171   173   ar
   129   142   135   am
   130   142   143    1
   131    87    83   am
   132    84    83    2
   133   135   136    2
   134   170   172   ar
   135    83    82    1
   136   154   155    2
   137   154   153    1
   138   173   174   ar
   139   143   144    1
   140   145   144    2
   141   172   174   ar
   142   174   175    1
   143   153   152    1
   144    82    81    1
   145    82    85    1
   146   144   146   am
   147   151    86    1
   148   151   150    1
   149    56    54   ar
   150    81    78   am
   151    80    77    1
   152    51    50    2
   153    86    85    1
   154   146   147    1
   155    54    53    1
   156    54    55   ar
   157    53    52    1
   158    78    79    2
   159    78    77    1
   160    77    76    1
   161    50    49    1
   162   147   150    1
   163   147   148    1
   164    75    73   ar
   165    74    73   ar
   166    49    52    1
   167    49    48    1
   168    76    70   am
   169    73    72    1
   170   148   149    2
   171    70    71    2
   172    70    69    1
   173    72    69    1
   174    69    68    1
