@<TRIPOS>MOLECULE
tmp/2ux8A00.pdb
 93 86 0 0 0
SMALL
GASTEIGER

@<TRIPOS>ATOM
      1  N         36.5640   59.2270   92.6470 N.3    18  ARG18      -0.1245
      2  CA        36.4950   59.6860   91.2680 C.3    18  ARG18       0.1563
      3  C         37.1240   58.7500   90.2450 C.2    18  ARG18       0.2260
      4  O         36.8180   58.8360   89.0630 O.2    18  ARG18      -0.2867
      5  CB        37.1330   61.0640   91.1460 C.3    18  ARG18       0.0307
      6  CG        36.3220   62.1650   91.7820 C.3    18  ARG18       0.0489
      7  CD        36.8550   63.5110   91.3640 C.3    18  ARG18       0.2205
      8  NE        38.0290   63.8800   92.1360 N.pl3  18  ARG18      -0.0865
      9  CZ        38.9500   64.7450   91.7270 C.cat  18  ARG18       0.5346
     10  NH1       38.8380   65.3290   90.5440 N.pl3  18  ARG18       0.1354
     11  NH2       39.9810   65.0370   92.5080 N.pl3  18  ARG18       0.1354
     12  N         41.6020   67.9240  104.4040 N.3   110  LEU110     -0.1245
     13  CA        42.9830   68.3950  104.3880 C.3   110  LEU110      0.1561
     14  C         43.5230   68.9760  105.6890 C.2   110  LEU110      0.2260
     15  O         44.5900   68.5860  106.1590 O.2   110  LEU110     -0.2867
     16  CB        43.1530   69.4170  103.2630 C.3   110  LEU110      0.0270
     17  CG        44.5560   69.9760  103.0040 C.3   110  LEU110      0.0019
     18  CD1       45.5720   68.8390  103.0070 C.3   110  LEU110      0.0001
     19  CD2       44.5730   70.7170  101.6620 C.3   110  LEU110      0.0001
     20  N         50.2170   67.5020   97.6060 N.3   130  LEU130     -0.1245
     21  CA        49.0690   66.6860   97.2410 C.3   130  LEU130      0.1561
     22  C         49.4850   66.0190   95.9340 C.2   130  LEU130      0.2260
     23  O         49.5360   66.6630   94.8800 O.2   130  LEU130     -0.2867
     24  CB        47.8420   67.5640   97.0280 C.3   130  LEU130      0.0270
     25  CG        47.4910   68.3960   98.2580 C.3   130  LEU130      0.0019
     26  CD1       46.2150   69.1740   98.0150 C.3   130  LEU130      0.0001
     27  CD2       47.3310   67.4770   99.4470 C.3   130  LEU130      0.0001
     28  N         48.0030   64.2860   93.7700 N.3   132  ASP132     -0.1225
     29  CA        47.0990   64.3180   92.6220 C.3   132  ASP132      0.1805
     30  C         47.4970   65.4530   91.6910 C.2   132  ASP132      0.2597
     31  O         47.2260   65.4050   90.4930 O.2   132  ASP132     -0.2718
     32  CB        45.6460   64.4890   93.0540 C.3   132  ASP132      0.1424
     33  CG        45.0190   63.1880   93.5070 C.2   132  ASP132      0.3668
     34  OD1       45.5680   62.1110   93.1940 O.co2 132  ASP132     -0.2456
     35  OD2       43.9630   63.2410   94.1650 O.co2 132  ASP132     -0.2456
     36  N         48.1330   66.4810   92.2400 N.am  133  ASP133     -0.1974
     37  CA        48.5890   67.5860   91.4180 C.3   133  ASP133      0.1709
     38  C         49.9670   67.2130   90.8800 C.2   133  ASP133      0.2293
     39  O         50.9900   67.4110   91.5360 O.2   133  ASP133     -0.2864
     40  CB        48.6420   68.8810   92.2320 C.3   133  ASP133      0.1436
     41  CG        47.2580   69.4270   92.5400 C.2   133  ASP133      0.3671
     42  OD1       47.1600   70.4830   93.1950 O.co2 133  ASP133     -0.2456
     43  OD2       46.2610   68.8000   92.1230 O.co2 133  ASP133     -0.2456
     44  N         44.7670   78.0030   93.6080 N.3   178  VAL178     -0.1231
     45  CA        45.7480   77.5160   94.5680 C.3   178  VAL178      0.1692
     46  C         46.0430   76.0680   94.2250 C.2   178  VAL178      0.2592
     47  O         45.1330   75.2920   93.9270 O.2   178  VAL178     -0.2718
     48  CB        45.2200   77.5810   96.0020 C.3   178  VAL178      0.0266
     49  CG1       46.2820   77.0700   96.9640 C.3   178  VAL178      0.0020
     50  CG2       44.8230   79.0080   96.3380 C.3   178  VAL178      0.0020
     51  N         47.3140   75.7000   94.2600 N.am  179  ILE179     -0.1966
     52  CA        47.6810   74.3390   93.9250 C.3   179  ILE179      0.1727
     53  C         48.2450   73.5890   95.1240 C.2   179  ILE179      0.2616
     54  O         48.7900   74.1810   96.0550 O.2   179  ILE179     -0.2715
     55  CB        48.6850   74.3210   92.7500 C.3   179  ILE179      0.0290
     56  CG1       48.0420   74.9650   91.5210 C.3   179  ILE179      0.0022
     57  CG2       49.0750   72.8990   92.4080 C.3   179  ILE179      0.0023
     58  CD1       46.7360   74.3100   91.0910 C.3   179  ILE179      0.0001
     59  N         48.0980   72.2720   95.0880 N.am  180  GLY180     -0.1955
     60  CA        48.5630   71.4260   96.1720 C.3   180  GLY180      0.1869
     61  C         50.0380   71.3990   96.5370 C.2   180  GLY180      0.2309
     62  O         50.6150   70.3240   96.7120 O.2   180  GLY180     -0.2863
     63  N         52.5070   73.4490   99.3020 N.3   182  TYR182     -0.1241
     64  CA        52.6280   74.4700  100.3340 C.3   182  TYR182      0.1605
     65  C         53.9160   74.3930  101.1400 C.2   182  TYR182      0.2264
     66  O         54.5200   73.3260  101.2820 O.2   182  TYR182     -0.2867
     67  CB        51.4830   74.3790  101.3500 C.3   182  TYR182      0.0534
     68  CG        50.0960   74.1200  100.8100 C.ar  182  TYR182     -0.0201
     69  CD1       49.7240   72.8580  100.3410 C.ar  182  TYR182     -0.0009
     70  CD2       49.1320   75.1280  100.8150 C.ar  182  TYR182     -0.0009
     71  CE1       48.4130   72.6090   99.8890 C.ar  182  TYR182      0.0417
     72  CE2       47.8230   74.8910  100.3660 C.ar  182  TYR182      0.0417
     73  CZ        47.4720   73.6330   99.9050 C.ar  182  TYR182      0.1957
     74  OH        46.1900   73.4100   99.4510 O.3   182  TYR182     -0.2866
     75  N         51.1190   71.8430   85.1230 N.3   219  ARG219     -0.1245
     76  CA        50.4920   70.9840   86.1140 C.3   219  ARG219      0.1563
     77  C         49.3160   70.2070   85.5440 C.2   219  ARG219      0.2260
     78  O         48.4900   70.7560   84.8170 O.2   219  ARG219     -0.2867
     79  CB        50.0120   71.8250   87.2970 C.3   219  ARG219      0.0307
     80  CG        49.0500   71.1120   88.2440 C.3   219  ARG219      0.0489
     81  CD        47.6310   71.6210   88.0790 C.3   219  ARG219      0.2205
     82  NE        46.7180   71.0830   89.0860 N.pl3 219  ARG219     -0.0865
     83  CZ        45.4820   71.5340   89.2910 C.cat 219  ARG219      0.5346
     84  NH1       45.0130   72.5350   88.5570 N.pl3 219  ARG219      0.1354
     85  NH2       44.7130   70.9910   90.2280 N.pl3 219  ARG219      0.1354
     86  N         46.0480   67.8680   86.5530 N.3   221  ASP221     -0.1239
     87  CA        45.1750   67.4770   87.6420 C.3   221  ASP221      0.1674
     88  C         44.8440   65.9980   87.5210 C.2   221  ASP221      0.2266
     89  O         43.8240   65.6210   86.9470 O.2   221  ASP221     -0.2867
     90  CB        43.8900   68.3150   87.6140 C.3   221  ASP221      0.1410
     91  CG        42.9510   68.0080   88.7790 C.2   221  ASP221      0.3668
     92  OD1       43.1880   67.0230   89.5090 O.co2 221  ASP221     -0.2456
     93  OD2       41.9640   68.7550   88.9580 O.co2 221  ASP221     -0.2456
@<TRIPOS>BOND
     1    78    77    2
     2    75    76    1
     3    77    76    1
     4    76    79    1
     5    86    87    1
     6    89    88    2
     7    79    80    1
     8    88    87    1
     9    90    87    1
    10    90    91    1
    11    81    80    1
    12    81    82    1
    13    84    83    1
    14    91    93   ar
    15    91    92   ar
    16     4     3    2
    17    82    83    2
    18    83    85    1
    19     3     2    1
    20    31    30    2
    21    10     9    1
    22    38    37    1
    23    38    39    2
    24    58    56    1
    25     5     2    1
    26     5     6    1
    27     2     1    1
    28     7     6    1
    29     7     8    1
    30    37    40    1
    31    37    36    1
    32    56    55    1
    33    30    36   am
    34    30    29    1
    35     9     8    2
    36     9    11    1
    37    43    41   ar
    38    40    41    1
    39    57    55    1
    40    41    42   ar
    41    29    32    1
    42    29    28    1
    43    55    52    1
    44    32    33    1
    45    34    33   ar
    46    33    35   ar
    47    44    45    1
    48    52    51    1
    49    52    53    1
    50    47    46    2
    51    46    51   am
    52    46    45    1
    53    45    48    1
    54    23    22    2
    55    59    53   am
    56    59    60    1
    57    53    54    2
    58    22    21    1
    59    48    50    1
    60    48    49    1
    61    60    61    1
    62    61    62    2
    63    24    21    1
    64    24    25    1
    65    21    20    1
    66    26    25    1
    67    25    27    1
    68    63    64    1
    69    74    73    1
    70    71    73   ar
    71    71    69   ar
    72    73    72   ar
    73    64    65    1
    74    64    67    1
    75    69    68   ar
    76    72    70   ar
    77    68    70   ar
    78    68    67    1
    79    65    66    2
    80    19    17    1
    81    17    18    1
    82    17    16    1
    83    16    13    1
    84    13    12    1
    85    13    14    1
    86    14    15    2
