@<TRIPOS>MOLECULE
tmp/2ux8G00.pdb
 107 100 0 0 0
SMALL
GASTEIGER

@<TRIPOS>ATOM
      1  N         62.9350   51.8560   17.9340 N.3   110  LEU110     -0.1245
      2  CA        64.0880   51.6610   17.0580 C.3   110  LEU110      0.1561
      3  C         63.8410   51.6510   15.5420 C.2   110  LEU110      0.2260
      4  O         64.6180   52.2270   14.7660 O.2   110  LEU110     -0.2867
      5  CB        64.8170   50.3710   17.4480 C.3   110  LEU110      0.0270
      6  CG        66.1590   50.1460   16.7390 C.3   110  LEU110      0.0019
      7  CD1       67.2050   51.0540   17.3590 C.3   110  LEU110      0.0001
      8  CD2       66.5990   48.7030   16.8680 C.3   110  LEU110      0.0001
      9  N         73.8690   50.9280   18.6870 N.3   130  LEU130     -0.1245
     10  CA        73.1890   51.3780   19.9020 C.3   130  LEU130      0.1561
     11  C         74.2990   51.5490   20.9460 C.2   130  LEU130      0.2260
     12  O         74.8390   50.5690   21.4720 O.2   130  LEU130     -0.2867
     13  CB        72.1750   50.3350   20.3880 C.3   130  LEU130      0.0270
     14  CG        71.2410   49.7260   19.3390 C.3   130  LEU130      0.0019
     15  CD1       70.2530   48.8070   20.0310 C.3   130  LEU130      0.0001
     16  CD2       70.5070   50.8120   18.5760 C.3   130  LEU130      0.0001
     17  N         75.1150   49.5130   24.2710 N.3   133  ASP133     -0.1239
     18  CA        75.8360   48.2650   24.2010 C.3   133  ASP133      0.1674
     19  C         77.3100   48.6070   24.0150 C.2   133  ASP133      0.2266
     20  O         77.7890   48.8270   22.8980 O.2   133  ASP133     -0.2867
     21  CB        75.3090   47.4030   23.0560 C.3   133  ASP133      0.1410
     22  CG        74.0560   46.6320   23.4490 C.2   133  ASP133      0.3668
     23  OD1       73.2810   46.2390   22.5460 O.co2 133  ASP133     -0.2456
     24  OD2       73.8460   46.4140   24.6700 O.co2 133  ASP133     -0.2456
     25  N         63.9520   39.2450   26.6510 N.3   169  ARG169     -0.1231
     26  CA        64.2650   40.6670   26.5680 C.3   169  ARG169      0.1694
     27  C         65.0010   41.0240   25.2850 C.2   169  ARG169      0.2592
     28  O         65.2630   42.1940   25.0190 O.2   169  ARG169     -0.2718
     29  CB        65.1250   41.0760   27.7550 C.3   169  ARG169      0.0321
     30  CG        64.7310   40.4120   29.0510 C.3   169  ARG169      0.0489
     31  CD        65.8790   40.4940   30.0340 C.3   169  ARG169      0.2205
     32  NE        66.1560   41.8710   30.4340 N.pl3 169  ARG169     -0.0865
     33  CZ        67.3760   42.3660   30.6160 C.cat 169  ARG169      0.5346
     34  NH1       68.4370   41.5940   30.4250 N.pl3 169  ARG169      0.1354
     35  NH2       67.5360   43.6300   30.9930 N.pl3 169  ARG169      0.1354
     36  N         65.3310   40.0160   24.4930 N.am  170  TYR170     -0.1962
     37  CA        66.0630   40.2480   23.2650 C.3   170  TYR170      0.1771
     38  C         65.3420   39.7020   22.0460 C.2   170  TYR170      0.2620
     39  O         64.3230   39.0210   22.1540 O.2   170  TYR170     -0.2715
     40  CB        67.4280   39.5600   23.3290 C.3   170  TYR170      0.0574
     41  CG        68.3640   40.0060   24.4380 C.ar  170  TYR170     -0.0198
     42  CD1       68.1680   39.6040   25.7590 C.ar  170  TYR170     -0.0009
     43  CD2       69.4830   40.7930   24.1470 C.ar  170  TYR170     -0.0009
     44  CE1       69.0670   39.9710   26.7550 C.ar  170  TYR170      0.0417
     45  CE2       70.3820   41.1640   25.1320 C.ar  170  TYR170      0.0417
     46  CZ        70.1740   40.7520   26.4320 C.ar  170  TYR170      0.1957
     47  OH        71.0870   41.1180   27.3970 O.3   170  TYR170     -0.2866
     48  N         65.8870   40.0150   20.8800 N.am  171  GLY171     -0.1954
     49  CA        65.3480   39.4840   19.6530 C.3   171  GLY171      0.1869
     50  C         66.1360   38.1930   19.5740 C.2   171  GLY171      0.2309
     51  O         67.3480   38.2030   19.8000 O.2   171  GLY171     -0.2863
     52  N         61.0360   39.0500   17.8940 N.3   190  GLU190     -0.1182
     53  CA        61.3260   40.1700   18.7930 C.3   190  GLU190      0.1915
     54  C         61.5130   39.7020   20.2110 C.2   190  GLU190      0.2634
     55  O         62.5500   39.2910   20.5060 O.2   190  GLU190     -0.2714
     56  CB        60.2610   41.2590   18.7180 C.2   190  GLU190      0.0085
     57  CG        60.6930   42.6850   19.2160 C.2   190  GLU190      0.0835
     58  CD        62.1440   42.8430   19.7330 C.2   190  GLU190      0.3877
     59  OE1       63.1000   42.3790   19.0860 O.co2 190  GLU190     -0.2406
     60  OE2       62.3360   43.4760   20.7920 O.co2 190  GLU190     -0.2406
     61  N         60.5930   39.7450   21.1360 N.am  191  LYS191     -0.1977
     62  CA        60.9940   39.2160   22.4410 C.3   191  LYS191      0.1596
     63  C         60.0770   38.0580   22.7020 C.2   191  LYS191      0.2287
     64  O         58.9740   38.2400   23.1980 O.2   191  LYS191     -0.2864
     65  CB        60.8460   40.2650   23.5280 C.3   191  LYS191      0.0298
     66  CG        60.7740   41.6530   22.9790 C.3   191  LYS191      0.0038
     67  CD        61.4260   42.6300   23.9040 C.3   191  LYS191      0.0206
     68  CE        60.8470   44.0140   23.7090 C.3   191  LYS191      0.1093
     69  NZ        61.7330   45.0550   24.2680 N.3   191  LYS191     -0.1314
     70  N         70.0640   39.1260   19.6210 N.3   203  VAL203     -0.1245
     71  CA        70.5840   40.1640   18.7560 C.3   203  VAL203      0.1561
     72  C         71.1860   41.2510   19.6380 C.2   203  VAL203      0.2260
     73  O         70.6050   41.6330   20.6500 O.2   203  VAL203     -0.2867
     74  CB        69.4530   40.7610   17.8670 C.3   203  VAL203      0.0252
     75  CG1       70.0150   41.7920   16.9220 C.3   203  VAL203      0.0019
     76  CG2       68.7740   39.6490   17.0760 C.3   203  VAL203      0.0019
     77  N         73.0140   45.2220   19.8520 N.3   205  GLY205     -0.1225
     78  CA        72.9670   46.5200   19.1920 C.3   205  GLY205      0.1811
     79  C         73.9930   46.9090   18.1380 C.2   205  GLY205      0.2280
     80  O         74.4830   48.0360   18.1500 O.2   205  GLY205     -0.2866
     81  N         74.3230   46.4480   13.8860 N.3   207  TYR207     -0.1241
     82  CA        73.7750   45.9250   12.6360 C.3   207  TYR207      0.1605
     83  C         74.4220   46.4980   11.3710 C.2   207  TYR207      0.2264
     84  O         74.9580   47.6010   11.3670 O.2   207  TYR207     -0.2867
     85  CB        72.2690   46.2210   12.5200 C.3   207  TYR207      0.0534
     86  CG        71.4200   46.0810   13.7680 C.ar  207  TYR207     -0.0201
     87  CD1       71.7300   46.7750   14.9380 C.ar  207  TYR207     -0.0009
     88  CD2       70.2480   45.3330   13.7490 C.ar  207  TYR207     -0.0009
     89  CE1       70.8890   46.7270   16.0480 C.ar  207  TYR207      0.0417
     90  CE2       69.4040   45.2900   14.8540 C.ar  207  TYR207      0.0417
     91  CZ        69.7300   45.9910   15.9930 C.ar  207  TYR207      0.1957
     92  OH        68.8790   45.9920   17.0680 O.3   207  TYR207     -0.2866
     93  N         61.6570   47.3790   13.6410 N.3   230  LEU230     -0.1231
     94  CA        62.9110   46.9360   13.0220 C.3   230  LEU230      0.1693
     95  C         63.1380   45.4470   12.8580 C.2   230  LEU230      0.2592
     96  O         63.5820   44.9860   11.7930 O.2   230  LEU230     -0.2718
     97  CB        64.1340   47.5160   13.7520 C.3   230  LEU230      0.0284
     98  CG        65.4700   47.1000   13.0850 C.3   230  LEU230      0.0019
     99  CD1       65.5190   47.6230   11.6600 C.3   230  LEU230      0.0001
    100  CD2       66.6590   47.6250   13.8640 C.3   230  LEU230      0.0001
    101  N         62.8570   44.6870   13.9050 N.am  231  THR231     -0.1953
    102  CA        63.1150   43.2770   13.7740 C.3   231  THR231      0.1897
    103  C         62.2360   42.6130   12.7680 C.2   231  THR231      0.2313
    104  O         62.7390   41.8800   11.9110 O.2   231  THR231     -0.2863
    105  CB        63.0180   42.4750   15.0830 C.3   231  THR231      0.1794
    106  OG1       61.9230   42.9330   15.8690 O.3   231  THR231     -0.2208
    107  CG2       64.2750   42.6040   15.8440 C.3   231  THR231      0.0378
@<TRIPOS>BOND
     1    84    83    2
     2    83    82    1
     3    99    98    1
     4    96    95    2
     5   104   103    2
     6    85    82    1
     7    85    86    1
     8    82    81    1
     9   103   102    1
    10    95    94    1
    11    95   101   am
    12    94    93    1
    13    94    97    1
    14    98    97    1
    15    98   100    1
    16    88    86   ar
    17    88    90   ar
    18    86    87   ar
    19   102   101    1
    20   102   105    1
    21     4     3    2
    22    90    91   ar
    23    87    89   ar
    24   105   107    1
    25   105   106    1
    26     3     2    1
    27    91    89   ar
    28    91    92    1
    29     6     8    1
    30     6     7    1
    31     6     5    1
    32    75    74    1
    33     2     5    1
    34     2     1    1
    35    76    74    1
    36    74    71    1
    37    52    53    1
    38    79    80    2
    39    79    78    1
    40    16    14    1
    41     9    10    1
    42    56    53    1
    43    56    57    2
    44    71    70    1
    45    71    72    1
    46    53    54    1
    47    59    58   ar
    48    78    77    1
    49    57    58    1
    50    14    15    1
    51    14    13    1
    52    50    49    1
    53    50    51    2
    54    72    73    2
    55    49    48    1
    56    58    60   ar
    57    10    13    1
    58    10    11    1
    59    54    55    2
    60    54    61   am
    61    48    38   am
    62    11    12    2
    63    61    62    1
    64    38    39    2
    65    38    37    1
    66    62    63    1
    67    62    65    1
    68    23    22   ar
    69    63    64    2
    70    20    19    2
    71    66    65    1
    72    66    67    1
    73    21    22    1
    74    21    18    1
    75    37    40    1
    76    37    36    1
    77    40    41    1
    78    22    24   ar
    79    68    67    1
    80    68    69    1
    81    19    18    1
    82    43    41   ar
    83    43    45   ar
    84    18    17    1
    85    41    42   ar
    86    36    27   am
    87    28    27    2
    88    45    46   ar
    89    27    26    1
    90    42    44   ar
    91    46    44   ar
    92    46    47    1
    93    26    25    1
    94    26    29    1
    95    29    30    1
    96    30    31    1
    97    31    32    1
    98    34    33    1
    99    32    33    2
   100    33    35    1
