@<TRIPOS>MOLECULE
tmp/2uxiA00.pdb
 162 151 0 0 0
SMALL
GASTEIGER

@<TRIPOS>ATOM
      1  N         17.9110   26.0820   -9.6080 N.3    62  LEU62      -0.1231
      2  CA        17.1380   27.3150   -9.4170 C.3    62  LEU62       0.1693
      3  C         17.9620   28.5860   -9.5690 C.2    62  LEU62       0.2592
      4  O         17.5300   29.5610  -10.2020 O.2    62  LEU62      -0.2718
      5  CB        16.5000   27.3080   -8.0190 C.3    62  LEU62       0.0284
      6  CG        15.3830   26.3080   -7.7600 C.3    62  LEU62       0.0019
      7  CD1       14.7890   26.4830   -6.3510 C.3    62  LEU62       0.0001
      8  CD2       14.3230   26.4680   -8.8550 C.3    62  LEU62       0.0001
      9  N         19.1530   28.5620   -8.9780 N.am   63  HIS63      -0.1976
     10  CA        20.0350   29.7270   -8.9820 C.3    63  HIS63       0.1656
     11  C         20.3990   30.2210  -10.3860 C.2    63  HIS63       0.2291
     12  O         20.6590   31.4230  -10.5910 O.2    63  HIS63      -0.2864
     13  CB        21.3350   29.4640   -8.1800 C.3    63  HIS63       0.0771
     14  CG        21.1050   29.0220   -6.7690 C.ar   63  HIS63       0.0820
     15  ND1       20.1410   29.5890   -5.9550 N.ar   63  HIS63      -0.2267
     16  CD2       21.7030   28.0540   -6.0310 C.ar   63  HIS63       0.1154
     17  CE1       20.1460   28.9770   -4.7840 C.ar   63  HIS63       0.1986
     18  NE2       21.0820   28.0380   -4.8050 N.ar   63  HIS63      -0.2212
     19  N         19.4310   33.1350  -12.8040 N.3    66  HIS66      -0.1241
     20  CA        19.7130   34.4030  -12.1130 C.3    66  HIS66       0.1621
     21  C         21.2070   34.7190  -11.8930 C.2    66  HIS66       0.2264
     22  O         21.5490   35.7210  -11.2770 O.2    66  HIS66      -0.2867
     23  CB        18.9230   34.4680  -10.7830 C.3    66  HIS66       0.0745
     24  CG        17.4770   34.0980  -10.9250 C.ar   66  HIS66       0.0817
     25  ND1       16.6370   34.7180  -11.8260 N.ar   66  HIS66      -0.2268
     26  CD2       16.7250   33.1700  -10.2880 C.ar   66  HIS66       0.1154
     27  CE1       15.4310   34.1840  -11.7430 C.ar   66  HIS66       0.1986
     28  NE2       15.4570   33.2490  -10.8120 N.ar   66  HIS66      -0.2212
     29  N         22.6900   38.5770  -10.3320 N.3    70  ALA70      -0.1245
     30  CA        23.1380   38.4120   -8.9410 C.3    70  ALA70       0.1562
     31  C         24.6150   38.7440   -8.7810 C.2    70  ALA70       0.2260
     32  O         25.0130   39.4020   -7.8250 O.2    70  ALA70      -0.2867
     33  CB        22.8560   37.0000   -8.4550 C.3    70  ALA70       0.0290
     34  N         24.8450   42.6990   -9.4740 N.3    73  SER73      -0.1202
     35  CA        24.4650   43.3420   -8.2110 C.3    73  SER73       0.2020
     36  C         25.5300   43.2470   -7.1200 C.2    73  SER73       0.2618
     37  O         25.6270   44.1040   -6.2540 O.2    73  SER73      -0.2717
     38  CB        23.1740   42.7270   -7.6880 C.3    73  SER73       0.2103
     39  OG        23.4300   41.4320   -7.1580 O.3    73  SER73      -0.2182
     40  N         26.3170   42.1890   -7.1700 N.am   74  GLU74      -0.1979
     41  CA        27.3140   41.9480   -6.1490 C.3    74  GLU74       0.1602
     42  C         28.6730   42.5870   -6.4720 C.2    74  GLU74       0.2287
     43  O         29.5290   42.7320   -5.5870 O.2    74  GLU74      -0.2864
     44  CB        27.4390   40.4400   -5.9100 C.3    74  GLU74       0.0415
     45  CG        26.2670   39.8800   -5.1040 C.3    74  GLU74       0.1163
     46  CD        26.2950   38.3680   -4.9710 C.2    74  GLU74       0.3649
     47  OE1       27.3870   37.8140   -4.7230 O.co2  74  GLU74      -0.2457
     48  OE2       25.2200   37.7360   -5.1140 O.co2  74  GLU74      -0.2457
     49  N         19.4880   44.4520   -8.5720 N.3    85  MET85      -0.1245
     50  CA        18.8210   43.7110   -7.5150 C.3    85  MET85       0.1570
     51  C         17.3460   43.8210   -7.7300 C.2    85  MET85       0.2261
     52  O         16.6170   42.8730   -7.5490 O.2    85  MET85      -0.2867
     53  CB        19.1980   44.2750   -6.1720 C.3    85  MET85       0.0387
     54  CG        18.6620   43.4900   -5.0470 C.3    85  MET85       0.0595
     55  SD        19.6930   43.7690   -3.6040 S.3    85  MET85      -0.1393
     56  CE        19.0880   45.3960   -3.1470 C.3    85  MET85       0.0692
     57  N         16.8220   41.4690  -10.8920 N.3    88  LEU88      -0.1231
     58  CA        16.9000   40.1440  -10.3040 C.3    88  LEU88       0.1693
     59  C         15.5970   39.7230   -9.6320 C.2    88  LEU88       0.2591
     60  O         15.0720   38.6630   -9.9460 O.2    88  LEU88      -0.2718
     61  CB        18.0220   40.0330   -9.2870 C.3    88  LEU88       0.0284
     62  CG        18.0710   38.5560   -8.8270 C.3    88  LEU88       0.0019
     63  CD1       19.4330   38.0460   -8.6830 C.3    88  LEU88       0.0001
     64  CD2       17.3440   38.3170   -7.5340 C.3    88  LEU88       0.0001
     65  N         15.0970   40.5330   -8.7020 N.am   89  LEU89      -0.1980
     66  CA        13.8230   40.2220   -8.0190 C.3    89  LEU89       0.1596
     67  C         12.6280   40.1150   -8.9860 C.2    89  LEU89       0.2287
     68  O         11.7530   39.2970   -8.7840 O.2    89  LEU89      -0.2864
     69  CB        13.5320   41.2290   -6.9040 C.3    89  LEU89       0.0297
     70  CG        14.1310   41.0550   -5.5150 C.3    89  LEU89       0.0022
     71  CD1       13.7020   42.2090   -4.6510 C.3    89  LEU89       0.0001
     72  CD2       13.7140   39.7190   -4.8480 C.3    89  LEU89       0.0001
     73  N         13.0680   36.7260  -10.7890 N.3    92  VAL92      -0.1245
     74  CA        12.7530   35.6830   -9.8230 C.3    92  VAL92       0.1561
     75  C         11.2440   35.4990   -9.7940 C.2    92  VAL92       0.2260
     76  O         10.7390   34.3960  -10.0090 O.2    92  VAL92      -0.2867
     77  CB        13.2610   36.0560   -8.4140 C.3    92  VAL92       0.0252
     78  CG1       12.5710   35.2380   -7.3360 C.3    92  VAL92       0.0019
     79  CG2       14.7340   35.8760   -8.3240 C.3    92  VAL92       0.0019
     80  N         10.2280   24.7940   -6.3390 N.3   106  ASN106     -0.1240
     81  CA         9.9530   25.6280   -5.1760 C.3   106  ASN106      0.1653
     82  C          8.9010   24.9460   -4.2550 C.2   106  ASN106      0.2266
     83  O          8.9930   24.9920   -3.0330 O.2   106  ASN106     -0.2867
     84  CB         9.5750   27.0700   -5.5870 C.3   106  ASN106      0.1155
     85  CG        10.7990   27.9770   -5.8090 C.2   106  ASN106      0.2627
     86  OD1       11.3770   28.0500   -6.9150 O.2   106  ASN106     -0.2716
     87  ND2       11.1680   28.7040   -4.7790 N.am  106  ASN106     -0.0877
     88  N          9.7200   23.9950   -0.4840 N.3   110  HIS110     -0.1241
     89  CA         9.0010   24.6380    0.5770 C.3   110  HIS110      0.1621
     90  C          7.9970   23.6720    1.1390 C.2   110  HIS110      0.2264
     91  O          7.7930   23.6180    2.3300 O.2   110  HIS110     -0.2867
     92  CB         8.2560   25.8800    0.0960 C.3   110  HIS110      0.0745
     93  CG         9.1230   27.0730   -0.1350 C.ar  110  HIS110      0.0817
     94  ND1        9.2790   28.0680    0.8040 N.ar  110  HIS110     -0.2268
     95  CD2        9.8520   27.4500   -1.2110 C.ar  110  HIS110      0.1154
     96  CE1       10.0750   29.0080    0.3170 C.ar  110  HIS110      0.1986
     97  NE2       10.4310   28.6550   -0.9070 N.ar  110  HIS110     -0.2212
     98  N         23.2600   32.6180    0.0070 N.3   133  CYS133     -0.1235
     99  CA        22.3560   33.6370   -0.4530 C.3   133  CYS133      0.1677
    100  C         22.4560   34.8620    0.4240 C.2   133  CYS133      0.2270
    101  O         22.4760   35.9790   -0.0560 O.2   133  CYS133     -0.2867
    102  CB        20.9290   33.1220   -0.4440 C.3   133  CYS133      0.0956
    103  SG        19.7210   34.2760   -1.1920 S.3   133  CYS133     -0.0801
    104  N         25.4780   36.9690   -0.4140 N.3   136  GLY136     -0.1210
    105  CA        25.2060   37.8200   -1.5850 C.3   136  GLY136      0.1956
    106  C         24.3770   39.1030   -1.3790 C.2   136  GLY136      0.2611
    107  O         24.7550   40.1790   -1.8480 O.2   136  GLY136     -0.2717
    108  N         23.2400   39.0080   -0.7000 N.am  137  ILE137     -0.1979
    109  CA        22.4180   40.1950   -0.4800 C.3   137  ILE137      0.1595
    110  C         23.1540   41.2780    0.3010 C.2   137  ILE137      0.2287
    111  O         23.0400   42.4590   -0.0050 O.2   137  ILE137     -0.2864
    112  CB        21.1630   39.8540    0.2750 C.3   137  ILE137      0.0276
    113  CG1       20.5490   38.6040   -0.3430 C.3   137  ILE137      0.0022
    114  CG2       20.1960   41.0380    0.2270 C.3   137  ILE137      0.0022
    115  CD1       19.3590   38.0870    0.4250 C.3   137  ILE137      0.0001
    116  N         25.7580   43.0830   -1.9560 N.3   140  ALA140     -0.1245
    117  CA        25.0130   43.9440   -2.8440 C.3   140  ALA140      0.1562
    118  C         24.4470   45.1360   -2.0560 C.2   140  ALA140      0.2260
    119  O         24.6360   46.2770   -2.4690 O.2   140  ALA140     -0.2867
    120  CB        23.9190   43.1510   -3.5420 C.3   140  ALA140      0.0290
    121  N         15.0830   41.6230    4.0580 N.3   163  MET163     -0.1230
    122  CA        14.7180   41.4360    2.6650 C.3   163  MET163      0.1702
    123  C         14.5260   39.9810    2.3430 C.2   163  MET163      0.2592
    124  O         13.5230   39.5940    1.6960 O.2   163  MET163     -0.2718
    125  CB        15.7120   42.0390    1.6690 C.3   163  MET163      0.0401
    126  CG        15.0610   42.2470    0.2510 C.3   163  MET163      0.0596
    127  SD        16.3110   42.3720   -1.0470 S.3   163  MET163     -0.1393
    128  CE        16.9520   40.6840   -1.0210 C.3   163  MET163      0.0692
    129  N         15.4840   39.1780    2.7720 N.am  164  PHE164     -0.1976
    130  CA        15.4070   37.7490    2.5390 C.3   164  PHE164      0.1639
    131  C         14.1170   37.1170    3.1020 C.2   164  PHE164      0.2290
    132  O         13.5260   36.2610    2.4610 O.2   164  PHE164     -0.2864
    133  CB        16.6400   37.0340    3.0870 C.3   164  PHE164      0.0560
    134  CG        16.5340   35.5650    3.0160 C.ar  164  PHE164     -0.0200
    135  CD1       16.6630   34.9240    1.8150 C.ar  164  PHE164     -0.0042
    136  CD2       16.2280   34.8270    4.1420 C.ar  164  PHE164     -0.0042
    137  CE1       16.5140   33.5330    1.7280 C.ar  164  PHE164     -0.0003
    138  CE2       16.0770   33.4430    4.0670 C.ar  164  PHE164     -0.0003
    139  CZ        16.2130   32.8000    2.8530 C.ar  164  PHE164     -0.0000
    140  N         10.8740   38.0850    0.9220 N.3   167  VAL167     -0.1231
    141  CA        10.7480   37.4230   -0.3730 C.3   167  VAL167      0.1692
    142  C         10.4300   35.9340   -0.2040 C.2   167  VAL167      0.2592
    143  O          9.5560   35.3730   -0.8870 O.2   167  VAL167     -0.2718
    144  CB        12.0250   37.5900   -1.1890 C.3   167  VAL167      0.0266
    145  CG1       11.9790   36.7080   -2.4080 C.3   167  VAL167      0.0020
    146  CG2       12.2110   39.1060   -1.5390 C.3   167  VAL167      0.0020
    147  N         11.1660   35.2730    0.6940 N.am  168  ASP168     -0.1974
    148  CA        10.9270   33.8550    0.9150 C.3   168  ASP168      0.1709
    149  C          9.4500   33.6430    1.3570 C.2   168  ASP168      0.2293
    150  O          8.8290   32.7280    0.9040 O.2   168  ASP168     -0.2864
    151  CB        11.9130   33.3730    1.9610 C.3   168  ASP168      0.1436
    152  CG        11.7710   31.9220    2.2880 C.2   168  ASP168      0.3671
    153  OD1       12.0170   31.0860    1.3900 O.co2 168  ASP168     -0.2456
    154  OD2       11.4430   31.6010    3.4700 O.co2 168  ASP168     -0.2456
    155  N          7.0620   34.3620   -1.6900 N.3   171  ILE171     -0.1245
    156  CA         7.0620   33.1590   -2.5620 C.3   171  ILE171      0.1561
    157  C          6.1890   31.9950   -2.0220 C.2   171  ILE171      0.2260
    158  O          5.2670   31.5130   -2.6910 O.2   171  ILE171     -0.2867
    159  CB         8.5010   32.6730   -2.8410 C.3   171  ILE171      0.0252
    160  CG1        9.2620   33.7740   -3.6160 C.3   171  ILE171      0.0019
    161  CG2        8.4740   31.3170   -3.5700 C.3   171  ILE171      0.0019
    162  CD1       10.7720   33.6670   -3.5480 C.3   171  ILE171      0.0001
@<TRIPOS>BOND
     1    19    20    1
     2    20    21    1
     3    20    23    1
     4    21    22    2
     5    25    27   ar
     6    25    24   ar
     7    27    28   ar
     8    24    23    1
     9    24    26   ar
    10    57    58    1
    11    28    26   ar
    12    73    74    1
    13    12    11    2
    14    11    10    1
    15    29    30    1
    16    58    59    1
    17    58    61    1
    18     4     3    2
    19    76    75    2
    20    60    59    2
    21    74    75    1
    22    74    77    1
    23    59    65   am
    24     1     2    1
    25     3     2    1
    26     3     9   am
    27    34    35    1
    28     2     5    1
    29    61    62    1
    30    67    68    2
    31    67    66    1
    32    10     9    1
    33    10    13    1
    34    30    31    1
    35    30    33    1
    36     8     6    1
    37    62    63    1
    38    62    64    1
    39    31    32    2
    40    65    66    1
    41    49    50    1
    42    77    79    1
    43    77    78    1
    44    35    38    1
    45    35    36    1
    46    13    14    1
    47     5     6    1
    48    66    69    1
    49     6     7    1
    50    51    52    2
    51    51    50    1
    52    38    39    1
    53    50    53    1
    54    40    36   am
    55    40    41    1
    56    36    37    2
    57    86    85    2
    58    69    70    1
    59    14    16   ar
    60    14    15   ar
    61    42    41    1
    62    42    43    2
    63    80    81    1
    64    53    54    1
    65    41    44    1
    66    16    18   ar
    67    15    17   ar
    68    44    45    1
    69    85    84    1
    70    85    87   am
    71    84    81    1
    72    70    72    1
    73    70    71    1
    74    81    82    1
    75    48    46   ar
    76    45    46    1
    77    54    55    1
    78    46    47   ar
    79    18    17   ar
    80    82    83    2
    81   160   162    1
    82   160   159    1
    83    55    56    1
    84   161   159    1
    85   120   117    1
    86   117   118    1
    87   117   116    1
    88   159   156    1
    89   158   157    2
    90   156   157    1
    91   156   155    1
    92   119   118    2
    93   145   144    1
    94   107   106    2
    95   105   106    1
    96   105   104    1
    97   146   144    1
    98   106   108   am
    99    95    97   ar
   100    95    93   ar
   101   103   102    1
   102   144   141    1
   103   127   128    1
   104   127   126    1
   105    97    96   ar
   106   143   142    2
   107   108   109    1
   108    88    89    1
   109   109   112    1
   110   109   110    1
   111    99   102    1
   112    99    98    1
   113    99   100    1
   114   141   142    1
   115   141   140    1
   116   113   112    1
   117   113   115    1
   118   142   147   am
   119    93    92    1
   120    93    94   ar
   121   101   100    2
   122   111   110    2
   123    92    89    1
   124   114   112    1
   125   126   125    1
   126    96    94   ar
   127    89    90    1
   128   147   148    1
   129   150   149    2
   130   148   149    1
   131   148   151    1
   132    90    91    2
   133   153   152   ar
   134   125   122    1
   135   124   123    2
   136   137   135   ar
   137   137   139   ar
   138   135   134   ar
   139   151   152    1
   140   152   154   ar
   141   123   122    1
   142   123   129   am
   143   132   131    2
   144   130   129    1
   145   130   133    1
   146   130   131    1
   147   122   121    1
   148   139   138   ar
   149   134   133    1
   150   134   136   ar
   151   138   136   ar
