@<TRIPOS>MOLECULE
tmp/2uxiB00.pdb
 147 139 0 0 0
SMALL
GASTEIGER

@<TRIPOS>ATOM
      1  N         -1.7710   22.9930   15.2930 N.3    58  LEU58      -0.1245
      2  CA        -1.8090   24.3180   14.7100 C.3    58  LEU58       0.1561
      3  C         -2.6990   25.2780   15.4890 C.2    58  LEU58       0.2260
      4  O         -2.2790   26.4120   15.7970 O.2    58  LEU58      -0.2867
      5  CB        -2.2480   24.2440   13.2560 C.3    58  LEU58       0.0270
      6  CG        -2.5330   25.6090   12.6310 C.3    58  LEU58       0.0019
      7  CD1       -1.2200   26.2240   12.2360 C.3    58  LEU58       0.0001
      8  CD2       -3.4280   25.4640   11.4070 C.3    58  LEU58       0.0001
      9  N         -1.3640   27.0970   18.6180 N.3    61  LEU61      -0.1231
     10  CA        -0.4910   28.2980   18.4760 C.3    61  LEU61       0.1693
     11  C         -1.2030   29.6240   18.7290 C.2    61  LEU61       0.2592
     12  O         -0.5570   30.5790   19.1510 O.2    61  LEU61      -0.2718
     13  CB         0.2200   28.3440   17.1090 C.3    61  LEU61       0.0284
     14  CG         1.2540   27.2290   16.9490 C.3    61  LEU61       0.0019
     15  CD1        1.9290   27.3530   15.6580 C.3    61  LEU61       0.0001
     16  CD2        2.2740   27.2250   18.0680 C.3    61  LEU61       0.0001
     17  N         -2.5230   29.6700   18.5130 N.am   62  HIS62      -0.1976
     18  CA        -3.2840   30.9210   18.6390 C.3    62  HIS62       0.1656
     19  C         -3.5770   31.3580   20.0610 C.2    62  HIS62       0.2291
     20  O         -3.8610   32.5390   20.2790 O.2    62  HIS62      -0.2864
     21  CB        -4.6030   30.8870   17.8560 C.3    62  HIS62       0.0771
     22  CG        -4.4790   30.2930   16.4910 C.ar   62  HIS62       0.0820
     23  ND1       -5.5310   29.6510   15.8650 N.ar   62  HIS62      -0.2267
     24  CD2       -3.4180   30.1970   15.6520 C.ar   62  HIS62       0.1154
     25  CE1       -5.1230   29.1980   14.6910 C.ar   62  HIS62       0.1986
     26  NE2       -3.8420   29.5060   14.5440 N.ar   62  HIS62      -0.2212
     27  N         -1.7860   34.6160   22.0670 N.3    65  HIS65      -0.1241
     28  CA        -1.9700   35.9330   21.4550 C.3    65  HIS65       0.1621
     29  C         -3.4260   36.3550   21.3420 C.2    65  HIS65       0.2264
     30  O         -3.7220   37.5160   21.0290 O.2    65  HIS65      -0.2867
     31  CB        -1.3550   35.8780   20.0680 C.3    65  HIS65       0.0745
     32  CG        -0.0330   35.1990   20.0630 C.ar   65  HIS65       0.0817
     33  ND1        0.9840   35.5710   20.9150 N.ar   65  HIS65      -0.2268
     34  CD2        0.4260   34.1370   19.3650 C.ar   65  HIS65       0.1154
     35  CE1        2.0270   34.7870   20.7180 C.ar   65  HIS65       0.1986
     36  NE2        1.7150   33.9090   19.7820 N.ar   65  HIS65      -0.2212
     37  N          4.6800   37.0890   19.9670 N.3    91  VAL91      -0.1245
     38  CA         4.9390   35.9890   19.0160 C.3    91  VAL91       0.1561
     39  C          6.4160   35.6790   18.9820 C.2    91  VAL91       0.2260
     40  O          6.8400   34.5480   19.1250 O.2    91  VAL91      -0.2867
     41  CB         4.3950   36.2840   17.5870 C.3    91  VAL91       0.0252
     42  CG1        5.0020   35.2990   16.5480 C.3    91  VAL91       0.0019
     43  CG2        2.8200   36.2360   17.6100 C.3    91  VAL91       0.0019
     44  N          6.0790   25.0370   15.7020 N.3   105  ASN105     -0.1240
     45  CA         6.4770   25.8140   14.5160 C.3   105  ASN105      0.1653
     46  C          7.4570   25.0720   13.6450 C.2   105  ASN105      0.2266
     47  O          7.3810   25.1640   12.4030 O.2   105  ASN105     -0.2867
     48  CB         7.0540   27.1740   14.8770 C.3   105  ASN105      0.1155
     49  CG         5.9730   28.2180   15.1520 C.2   105  ASN105      0.2627
     50  OD1        5.6690   28.5260   16.3130 O.2   105  ASN105     -0.2716
     51  ND2        5.3720   28.7510   14.0950 N.am  105  ASN105     -0.0877
     52  N          5.4820   22.4560   11.7360 N.3   108  LEU108     -0.1231
     53  CA         4.6370   23.0410   10.6850 C.3   108  LEU108      0.1693
     54  C          5.4620   23.4680    9.4840 C.2   108  LEU108      0.2592
     55  O          5.0600   23.2460    8.3710 O.2   108  LEU108     -0.2718
     56  CB         3.9150   24.2740   11.2240 C.3   108  LEU108      0.0284
     57  CG         2.7340   24.1930   12.2010 C.3   108  LEU108      0.0019
     58  CD1        1.5810   25.0360   11.6470 C.3   108  LEU108      0.0001
     59  CD2        2.2660   22.8000   12.4600 C.3   108  LEU108      0.0001
     60  N          6.6120   24.0860    9.7180 N.am  109  HIS109     -0.1976
     61  CA         7.4350   24.5900    8.6320 C.3   109  HIS109      0.1656
     62  C          8.4390   23.6000    8.0330 C.2   109  HIS109      0.2291
     63  O          8.8810   23.8140    6.9140 O.2   109  HIS109     -0.2864
     64  CB         8.2180   25.8470    9.0640 C.3   109  HIS109      0.0771
     65  CG         7.3550   27.0020    9.4700 C.ar  109  HIS109      0.0820
     66  ND1        7.8570   28.2700    9.6450 N.ar  109  HIS109     -0.2267
     67  CD2        6.0290   27.0910    9.7240 C.ar  109  HIS109      0.1154
     68  CE1        6.8890   29.0890   10.0080 C.ar  109  HIS109      0.1986
     69  NE2        5.7670   28.3980   10.0690 N.ar  109  HIS109     -0.2212
     70  N          3.1270   18.7030    2.3240 N.3   114  PHE114     -0.1241
     71  CA         1.8450   18.6700    1.6800 C.3   114  PHE114      0.1605
     72  C          1.9820   17.6260    0.5840 C.2   114  PHE114      0.2264
     73  O          2.6810   17.8160   -0.4050 O.2   114  PHE114     -0.2867
     74  CB         1.4710   20.0200    1.1030 C.3   114  PHE114      0.0534
     75  CG         1.3940   21.1610    2.1410 C.ar  114  PHE114     -0.0203
     76  CD1        1.6800   22.4890    1.7570 C.ar  114  PHE114     -0.0042
     77  CD2        0.9960   20.9230    3.4600 C.ar  114  PHE114     -0.0042
     78  CE1        1.5910   23.5540    2.6740 C.ar  114  PHE114     -0.0003
     79  CE2        0.9060   21.9660    4.3740 C.ar  114  PHE114     -0.0003
     80  CZ         1.2160   23.3030    3.9740 C.ar  114  PHE114     -0.0000
     81  N         -4.1270   24.2740    6.1250 N.3   125  ARG125     -0.1245
     82  CA        -3.1520   25.3580    6.1440 C.3   125  ARG125      0.1563
     83  C         -3.5760   26.5760    5.3390 C.2   125  ARG125      0.2260
     84  O         -3.4110   27.6920    5.8000 O.2   125  ARG125     -0.2867
     85  CB        -1.7940   24.8780    5.6430 C.3   125  ARG125      0.0307
     86  CG        -0.7040   25.8050    6.0580 C.3   125  ARG125      0.0489
     87  CD        -0.4850   25.6680    7.5760 C.3   125  ARG125      0.2205
     88  NE         0.9160   25.3330    7.8240 N.pl3 125  ARG125     -0.0865
     89  CZ         1.4330   24.1070    7.7910 C.cat 125  ARG125      0.5346
     90  NH1        0.6770   23.0360    7.5650 N.pl3 125  ARG125      0.1354
     91  NH2        2.7340   23.9520    8.0030 N.pl3 125  ARG125      0.1354
     92  N         -6.2620   28.2980    7.2210 N.3   128  ALA128     -0.1231
     93  CA        -5.6940   28.9340    8.4200 C.3   128  ALA128      0.1694
     94  C         -5.0360   30.2480    8.0910 C.2   128  ALA128      0.2591
     95  O         -5.1420   31.1970    8.8750 O.2   128  ALA128     -0.2718
     96  CB        -4.6800   28.0160    9.1160 C.3   128  ALA128      0.0304
     97  N         -4.3320   30.2980    6.9540 N.am  129  VAL129     -0.1980
     98  CA        -3.6590   31.5390    6.4730 C.3   129  VAL129      0.1595
     99  C         -4.6410   32.5760    5.9420 C.2   129  VAL129      0.2287
    100  O         -4.4210   33.7660    6.1170 O.2   129  VAL129     -0.2864
    101  CB        -2.5480   31.2250    5.4330 C.3   129  VAL129      0.0276
    102  CG1       -1.8150   32.4900    4.9440 C.3   129  VAL129      0.0022
    103  CG2       -1.5790   30.2890    6.0610 C.3   129  VAL129      0.0022
    104  N         -6.0600   34.2910    9.1160 N.3   132  CYS132     -0.1235
    105  CA        -5.0210   35.1410    9.6810 C.3   132  CYS132      0.1677
    106  C         -4.8220   36.3930    8.8260 C.2   132  CYS132      0.2270
    107  O         -4.6830   37.4780    9.3700 O.2   132  CYS132     -0.2867
    108  CB        -3.7260   34.3490    9.8550 C.3   132  CYS132      0.0956
    109  SG        -2.2960   35.3140   10.3490 S.3   132  CYS132     -0.0801
    110  N          2.4060   39.5420    6.7530 N.3   163  PHE163     -0.1241
    111  CA         2.5140   38.0710    6.8790 C.3   163  PHE163      0.1605
    112  C          3.8230   37.5530    6.2660 C.2   163  PHE163      0.2264
    113  O          4.5720   36.8730    6.9360 O.2   163  PHE163     -0.2867
    114  CB         1.3260   37.3930    6.2220 C.3   163  PHE163      0.0534
    115  CG         1.1280   35.9290    6.6070 C.ar  163  PHE163     -0.0203
    116  CD1        0.4380   35.5780    7.7430 C.ar  163  PHE163     -0.0042
    117  CD2        1.5620   34.9000    5.7610 C.ar  163  PHE163     -0.0042
    118  CE1        0.2510   34.2430    8.0780 C.ar  163  PHE163     -0.0003
    119  CE2        1.3810   33.5470    6.1200 C.ar  163  PHE163     -0.0003
    120  CZ         0.6960   33.2370    7.2770 C.ar  163  PHE163     -0.0000
    121  N          6.2560   35.4610    8.6480 N.3   167  ASP167     -0.1239
    122  CA         6.4520   34.0430    8.3200 C.3   167  ASP167      0.1674
    123  C          7.9180   33.8210    7.9450 C.2   167  ASP167      0.2266
    124  O          8.5310   32.9100    8.4440 O.2   167  ASP167     -0.2867
    125  CB         5.6110   33.6460    7.1360 C.3   167  ASP167      0.1410
    126  CG         5.6750   32.1620    6.8260 C.2   167  ASP167      0.3668
    127  OD1        5.1050   31.3830    7.5910 O.co2 167  ASP167     -0.2456
    128  OD2        6.2370   31.7610    5.8010 O.co2 167  ASP167     -0.2456
    129  N         10.3440   34.0960   10.9960 N.3   170  ILE170     -0.1231
    130  CA        10.1810   32.9590   11.9110 C.3   170  ILE170      0.1693
    131  C         10.8650   31.7610   11.3130 C.2   170  ILE170      0.2594
    132  O         11.6550   31.1040   11.9740 O.2   170  ILE170     -0.2718
    133  CB         8.6960   32.6110   12.1490 C.3   170  ILE170      0.0266
    134  CG1        7.9950   33.7380   12.9430 C.3   170  ILE170      0.0019
    135  CG2        8.5710   31.2550   12.8240 C.3   170  ILE170      0.0020
    136  CD1        6.4620   33.5860   13.0300 C.3   170  ILE170      0.0001
    137  N         10.5980   31.4920   10.0410 N.am  171  ARG171     -0.1934
    138  CA        11.1340   30.3300    9.3810 C.3   171  ARG171      0.1813
    139  C         12.6450   30.5110    9.2950 C.2   171  ARG171      0.2332
    140  O         13.3760   29.5480    9.3260 O.2   171  ARG171     -0.2860
    141  CB        10.4810   30.1790    8.0060 C.2   171  ARG171      0.0019
    142  CG        10.8860   28.9620    7.1550 C.2   171  ARG171      0.0178
    143  CD        10.0990   28.8000    5.7960 C.3   171  ARG171      0.2464
    144  NE        10.0640   30.0030    4.9470 N.pl3 171  ARG171     -0.0815
    145  CZ         8.9580   30.6370    4.5160 C.cat 171  ARG171      0.5349
    146  NH1        7.7250   30.2050    4.8080 N.pl3 171  ARG171      0.1354
    147  NH2        9.0940   31.7170    3.7610 N.pl3 171  ARG171      0.1354
@<TRIPOS>BOND
     1    73    72    2
     2    72    71    1
     3    74    71    1
     4    74    75    1
     5    71    70    1
     6    76    75   ar
     7    76    78   ar
     8    75    77   ar
     9    78    80   ar
    10    77    79   ar
    11   147   145    1
    12    80    79   ar
    13   145   146    1
    14   145   144    2
    15   102   101    1
    16   144   143    1
    17    83    84    2
    18    83    82    1
    19   101   103    1
    20   101    98    1
    21    85    86    1
    22    85    82    1
    23   117   119   ar
    24   117   115   ar
    25   143   142    1
    26   128   126   ar
    27    99   100    2
    28    99    98    1
    29    86    87    1
    30   119   120   ar
    31    81    82    1
    32   114   115    1
    33   114   111    1
    34   112   111    1
    35   112   113    2
    36    98    97    1
    37   115   116   ar
    38   110   111    1
    39   126   125    1
    40   126   127   ar
    41    63    62    2
    42    97    94   am
    43   125   122    1
    44   142   141    2
    45    92    93    1
    46   120   118   ar
    47    90    89    1
    48    87    88    1
    49   116   118   ar
    50    89    88    2
    51    89    91    1
    52   123   122    1
    53   123   124    2
    54   141   138    1
    55    62    61    1
    56    94    93    1
    57    94    95    2
    58   122   121    1
    59    55    54    2
    60    93    96    1
    61    61    64    1
    62    61    60    1
    63   106   107    2
    64   106   105    1
    65    64    65    1
    66   104   105    1
    67   139   140    2
    68   139   138    1
    69   138   137    1
    70    65    66   ar
    71    65    67   ar
    72    54    60   am
    73    54    53    1
    74    66    68   ar
    75   105   108    1
    76    67    69   ar
    77   108   109    1
    78    68    69   ar
    79   137   131   am
    80    53    56    1
    81    53    52    1
    82   129   130    1
    83    56    57    1
    84   131   130    1
    85   131   132    2
    86     8     6    1
    87    58    57    1
    88   130   133    1
    89   133   135    1
    90   133   134    1
    91    57    59    1
    92     7     6    1
    93    47    46    2
    94     6     5    1
    95   134   136    1
    96     5     2    1
    97    46    45    1
    98    51    49   am
    99    45    48    1
   100    45    44    1
   101    26    25   ar
   102    26    24   ar
   103    25    23   ar
   104     2     1    1
   105     2     3    1
   106    48    49    1
   107    49    50    2
   108     3     4    2
   109    24    22   ar
   110    15    14    1
   111    23    22   ar
   112    22    21    1
   113    42    41    1
   114    14    13    1
   115    14    16    1
   116    13    10    1
   117    41    43    1
   118    41    38    1
   119    21    18    1
   120    10     9    1
   121    10    11    1
   122    17    18    1
   123    17    11   am
   124    18    19    1
   125    11    12    2
   126    39    38    1
   127    39    40    2
   128    38    37    1
   129    34    36   ar
   130    34    32   ar
   131    36    35   ar
   132    19    20    2
   133    32    31    1
   134    32    33   ar
   135    31    28    1
   136    35    33   ar
   137    30    29    2
   138    29    28    1
   139    28    27    1
