@<TRIPOS>MOLECULE
tmp/2uxoB00.pdb
 206 191 0 0 0
SMALL
GASTEIGER

@<TRIPOS>ATOM
      1  N         -1.9260   22.9270   15.4660 N.3    58  LEU58      -0.1245
      2  CA        -2.0480   24.2390   14.8330 C.3    58  LEU58       0.1561
      3  C         -2.9580   25.1430   15.6480 C.2    58  LEU58       0.2260
      4  O         -2.5340   26.2330   16.0630 O.2    58  LEU58      -0.2867
      5  CB        -2.5500   24.1300   13.3710 C.3    58  LEU58       0.0270
      6  CG        -2.8220   25.5300   12.7300 C.3    58  LEU58       0.0019
      7  CD1       -1.5280   26.2670   12.4960 C.3    58  LEU58       0.0001
      8  CD2       -3.6250   25.2860   11.4630 C.3    58  LEU58       0.0001
      9  N         -1.7000   27.0730   18.8080 N.3    61  LEU61      -0.1231
     10  CA        -0.8970   28.3060   18.7040 C.3    61  LEU61       0.1693
     11  C         -1.7220   29.5780   18.9260 C.2    61  LEU61       0.2592
     12  O         -1.1740   30.5740   19.3820 O.2    61  LEU61      -0.2718
     13  CB        -0.1780   28.4450   17.3480 C.3    61  LEU61       0.0284
     14  CG         0.8400   27.3690   17.0100 C.3    61  LEU61       0.0019
     15  CD1        1.5970   27.6360   15.7210 C.3    61  LEU61       0.0001
     16  CD2        1.8120   27.2190   18.1480 C.3    61  LEU61       0.0001
     17  N         -3.0240   29.5600   18.6350 N.am   62  HIS62      -0.1976
     18  CA        -3.7940   30.8220   18.6680 C.3    62  HIS62       0.1656
     19  C         -4.2120   31.3260   20.0720 C.2    62  HIS62       0.2291
     20  O         -4.3790   32.5310   20.2760 O.2    62  HIS62      -0.2864
     21  CB        -4.9780   30.7960   17.6780 C.3    62  HIS62       0.0771
     22  CG        -4.6500   30.1230   16.3760 C.ar   62  HIS62       0.0820
     23  ND1       -5.6110   29.5270   15.5750 N.ar   62  HIS62      -0.2267
     24  CD2       -3.4560   29.9160   15.7560 C.ar   62  HIS62       0.1154
     25  CE1       -5.0250   28.9920   14.5180 C.ar   62  HIS62       0.1986
     26  NE2       -3.7180   29.2100   14.6060 N.ar   62  HIS62      -0.2212
     27  N         -2.4650   34.6430   22.1270 N.3    65  HIS65      -0.1241
     28  CA        -2.6310   35.9840   21.5690 C.3    65  HIS65       0.1621
     29  C         -4.0790   36.4330   21.5030 C.2    65  HIS65       0.2264
     30  O         -4.3450   37.6120   21.2680 O.2    65  HIS65      -0.2867
     31  CB        -1.9790   36.0490   20.1920 C.3    65  HIS65       0.0745
     32  CG        -0.6740   35.3310   20.1310 C.ar   65  HIS65       0.0817
     33  ND1        0.3690   35.6170   20.9890 N.ar   65  HIS65      -0.2268
     34  CD2       -0.2470   34.3140   19.3450 C.ar   65  HIS65       0.1154
     35  CE1        1.3850   34.8150   20.7310 C.ar   65  HIS65       0.1986
     36  NE2        1.0360   34.0120   19.7400 N.ar   65  HIS65      -0.2212
     37  N         -5.5440   40.0180   19.9740 N.3    69  ALA69      -0.1245
     38  CA        -6.0480   39.9450   18.5900 C.3    69  ALA69       0.1562
     39  C         -7.4400   40.5630   18.4520 C.2    69  ALA69       0.2260
     40  O         -7.6890   41.3950   17.5840 O.2    69  ALA69      -0.2867
     41  CB        -6.0300   38.4810   18.0680 C.3    69  ALA69       0.0290
     42  N         -1.3770   45.7570   17.9790 N.3    84  MET84      -0.1245
     43  CA        -0.7460   44.9260   16.9850 C.3    84  MET84       0.1570
     44  C          0.7300   44.8720   17.3360 C.2    84  MET84       0.2261
     45  O          1.3770   43.8170   17.2240 O.2    84  MET84      -0.2867
     46  CB        -0.9640   45.5240   15.6090 C.3    84  MET84       0.0387
     47  CG        -0.5160   44.6350   14.4650 C.3    84  MET84       0.0595
     48  SD        -1.3560   45.0250   12.9050 S.3    84  MET84      -0.1393
     49  CE        -1.1770   46.8270   12.8700 C.3    84  MET84       0.0692
     50  N          0.8990   42.5040   20.1360 N.3    87  LEU87      -0.1231
     51  CA         0.7340   41.1340   19.6810 C.3    87  LEU87       0.1693
     52  C          1.9960   40.5400   19.0060 C.2    87  LEU87       0.2591
     53  O          2.3890   39.3900   19.2800 O.2    87  LEU87      -0.2718
     54  CB        -0.4890   41.0100   18.7960 C.3    87  LEU87       0.0284
     55  CG        -0.8090   39.5360   18.6090 C.3    87  LEU87       0.0019
     56  CD1       -2.2960   39.2930   18.5400 C.3    87  LEU87       0.0001
     57  CD2       -0.1400   39.0540   17.3510 C.3    87  LEU87       0.0001
     58  N          2.6240   41.3340   18.1370 N.am   88  LEU88      -0.1980
     59  CA         3.7910   40.9080   17.4010 C.3    88  LEU88       0.1596
     60  C          4.9260   40.5920   18.3530 C.2    88  LEU88       0.2287
     61  O          5.6370   39.5600   18.1850 O.2    88  LEU88      -0.2864
     62  CB         4.1660   41.9430   16.3460 C.3    88  LEU88       0.0297
     63  CG         3.3670   41.7240   15.0540 C.3    88  LEU88       0.0022
     64  CD1        3.3180   42.9610   14.1390 C.3    88  LEU88       0.0001
     65  CD2        3.8650   40.4420   14.2550 C.3    88  LEU88       0.0001
     66  N          4.1340   37.3180   20.0010 N.3    91  VAL91      -0.1245
     67  CA         4.3590   36.2450   19.0340 C.3    91  VAL91       0.1561
     68  C          5.8310   35.9720   19.0210 C.2    91  VAL91       0.2260
     69  O          6.2460   34.8530   19.1330 O.2    91  VAL91      -0.2867
     70  CB         3.8370   36.5710   17.5880 C.3    91  VAL91       0.0252
     71  CG1        4.4140   35.5710   16.5620 C.3    91  VAL91       0.0019
     72  CG2        2.2750   36.5720   17.5570 C.3    91  VAL91       0.0019
     73  N          6.9900   34.5570   22.6980 N.3    94  GLU94      -0.1231
     74  CA         6.5330   33.2080   22.9790 C.3    94  GLU94       0.1699
     75  C          7.2840   32.2520   22.1170 C.2    94  GLU94       0.2592
     76  O          7.5800   31.1310   22.4890 O.2    94  GLU94      -0.2718
     77  CB         5.0670   33.0700   22.6910 C.3    94  GLU94       0.0402
     78  CG         4.5770   31.6930   23.0380 C.3    94  GLU94       0.1161
     79  CD         3.1700   31.4080   22.5280 C.2    94  GLU94       0.3649
     80  OE1        2.8040   31.8130   21.3670 O.co2  94  GLU94      -0.2457
     81  OE2        2.4280   30.7370   23.3060 O.co2  94  GLU94      -0.2457
     82  N          7.6090   32.6830   20.9300 N.am   95  LEU95      -0.1980
     83  CA         8.2560   31.7720   20.0360 C.3    95  LEU95       0.1596
     84  C          9.6840   31.4730   20.5030 C.2    95  LEU95       0.2287
     85  O         10.1520   30.3410   20.3510 O.2    95  LEU95      -0.2864
     86  CB         8.2640   32.4000   18.6450 C.3    95  LEU95       0.0297
     87  CG         8.2400   31.6020   17.3370 C.3    95  LEU95       0.0022
     88  CD1        9.3650   32.1610   16.4570 C.3    95  LEU95       0.0001
     89  CD2        8.4110   30.0930   17.5260 C.3    95  LEU95       0.0001
     90  N          5.6890   26.1790   21.7900 N.3   101  THR101     -0.1218
     91  CA         5.4250   26.9860   20.6070 C.3   101  THR101      0.1862
     92  C          6.4580   26.8410   19.4560 C.2   101  THR101      0.2287
     93  O          6.0750   26.7410   18.2910 O.2   101  THR101     -0.2866
     94  CB         5.3510   28.4540   21.0290 C.3   101  THR101      0.1770
     95  OG1        4.3160   28.5680   22.0250 O.3   101  THR101     -0.2211
     96  CG2        5.0410   29.2750   19.8630 C.3   101  THR101      0.0375
     97  N          5.5760   25.2960   15.6920 N.3   105  ASN105     -0.1240
     98  CA         5.9350   26.0720   14.4960 C.3   105  ASN105      0.1653
     99  C          6.9060   25.3250   13.6110 C.2   105  ASN105      0.2266
    100  O          6.7280   25.2480   12.3750 O.2   105  ASN105     -0.2867
    101  CB         6.5090   27.4240   14.8650 C.3   105  ASN105      0.1155
    102  CG         5.4270   28.4180   15.2270 C.2   105  ASN105      0.2627
    103  OD1        4.9560   28.4460   16.3730 O.2   105  ASN105     -0.2716
    104  ND2        5.0030   29.2240   14.2480 N.am  105  ASN105     -0.0877
    105  N          5.0270   22.7130   11.7860 N.3   108  LEU108     -0.1231
    106  CA         4.2000   23.3670   10.7950 C.3   108  LEU108      0.1693
    107  C          4.9720   23.7860    9.5540 C.2   108  LEU108      0.2592
    108  O          4.4680   23.6040    8.4230 O.2   108  LEU108     -0.2718
    109  CB         3.6040   24.6330   11.3820 C.3   108  LEU108      0.0284
    110  CG         2.1870   24.9520   10.9650 C.3   108  LEU108      0.0019
    111  CD1        1.3210   24.3070   12.0450 C.3   108  LEU108      0.0001
    112  CD2        1.9310   26.4450   10.8990 C.3   108  LEU108      0.0001
    113  N          6.1450   24.4030    9.7480 N.am  109  HIS109     -0.1976
    114  CA         6.8890   24.9790    8.6330 C.3   109  HIS109      0.1656
    115  C          7.8240   23.9410    8.0350 C.2   109  HIS109      0.2291
    116  O          7.9880   23.9250    6.8300 O.2   109  HIS109     -0.2864
    117  CB         7.7740   26.1300    9.0750 C.3   109  HIS109      0.0771
    118  CG         7.0250   27.3430    9.4880 C.ar  109  HIS109      0.0820
    119  ND1        7.0580   28.5150    8.7590 N.ar  109  HIS109     -0.2267
    120  CD2        6.2580   27.5900   10.5750 C.ar  109  HIS109      0.1154
    121  CE1        6.2940   29.4230    9.3570 C.ar  109  HIS109      0.1986
    122  NE2        5.8020   28.8910   10.4640 N.ar  109  HIS109     -0.2212
    123  N         -4.6610   24.5450    6.3210 N.3   125  ARG125     -0.1245
    124  CA        -3.7210   25.6620    6.4160 C.3   125  ARG125      0.1563
    125  C         -4.2500   26.8480    5.6650 C.2   125  ARG125      0.2260
    126  O         -4.0970   27.9740    6.1280 O.2   125  ARG125     -0.2867
    127  CB        -2.3010   25.2790    5.9310 C.3   125  ARG125      0.0307
    128  CG        -1.2660   26.3120    6.3580 C.3   125  ARG125      0.0489
    129  CD        -0.5410   25.9330    7.6390 C.3   125  ARG125      0.2205
    130  NE         0.8150   25.4910    7.2980 N.pl3 125  ARG125     -0.0865
    131  CZ         1.2740   24.2410    7.4050 C.cat 125  ARG125      0.5346
    132  NH1        0.5080   23.2630    7.9090 N.pl3 125  ARG125      0.1354
    133  NH2        2.5230   23.9760    7.0330 N.pl3 125  ARG125      0.1354
    134  N         -6.9180   28.5580    7.5720 N.3   128  ALA128     -0.1231
    135  CA        -6.1440   29.1560    8.6740 C.3   128  ALA128      0.1694
    136  C         -5.4980   30.4700    8.2770 C.2   128  ALA128      0.2591
    137  O         -5.6240   31.4630    8.9840 O.2   128  ALA128     -0.2718
    138  CB        -5.0870   28.1990    9.1730 C.3   128  ALA128      0.0304
    139  N         -4.8050   30.4790    7.1390 N.am  129  VAL129     -0.1980
    140  CA        -4.2160   31.7260    6.6080 C.3   129  VAL129      0.1595
    141  C         -5.2590   32.7770    6.1370 C.2   129  VAL129      0.2287
    142  O         -5.0620   33.9510    6.3370 O.2   129  VAL129     -0.2864
    143  CB        -3.1110   31.4320    5.5300 C.3   129  VAL129      0.0276
    144  CG1       -2.5670   32.7150    4.9110 C.3   129  VAL129      0.0022
    145  CG2       -1.9890   30.6270    6.1440 C.3   129  VAL129      0.0022
    146  N         -6.6930   34.4340    9.3710 N.3   132  CYS132     -0.1235
    147  CA        -5.7280   35.3350    9.9730 C.3   132  CYS132      0.1677
    148  C         -5.6170   36.5790    9.1270 C.2   132  CYS132      0.2270
    149  O         -5.5220   37.6600    9.6750 O.2   132  CYS132     -0.2867
    150  CB        -4.3690   34.6130   10.1250 C.3   132  CYS132      0.0956
    151  SG        -2.8810   35.6490   10.5120 S.3   132  CYS132     -0.0801
    152  N         -6.0590   40.6250   10.0150 N.3   136  ILE136     -0.1245
    153  CA        -5.0860   41.6980    9.8190 C.3   136  ILE136      0.1561
    154  C         -5.7440   42.8980    9.1450 C.2   136  ILE136      0.2260
    155  O         -5.4330   44.0460    9.4550 O.2   136  ILE136     -0.2867
    156  CB        -3.8660   41.2900    8.9310 C.3   136  ILE136      0.0252
    157  CG1       -3.3210   39.8790    9.2390 C.3   136  ILE136      0.0019
    158  CG2       -2.7590   42.3620    9.0130 C.3   136  ILE136      0.0019
    159  CD1       -3.4490   39.4130   10.6760 C.3   136  ILE136      0.0001
    160  N         -7.7550   44.8520   11.3450 N.3   139  ALA139     -0.1245
    161  CA        -6.8320   45.5080   12.2560 C.3   139  ALA139      0.1562
    162  C         -6.2570   46.7360   11.5830 C.2   139  ALA139      0.2260
    163  O         -6.2970   47.8240   12.1370 O.2   139  ALA139     -0.2867
    164  CB        -5.7290   44.5550   12.7180 C.3   139  ALA139      0.0290
    165  N          2.4350   42.2430    5.5830 N.3   162  MET162     -0.1230
    166  CA         2.5980   42.0070    7.0270 C.3   162  MET162      0.1702
    167  C          2.8250   40.5330    7.3220 C.2   162  MET162      0.2592
    168  O          3.8490   40.1540    7.9030 O.2   162  MET162     -0.2718
    169  CB         1.3150   42.4070    7.7510 C.3   162  MET162      0.0401
    170  CG         1.4670   43.0870    9.1010 C.3   162  MET162      0.0596
    171  SD         3.0730   42.9650    9.8660 S.3   162  MET162     -0.1393
    172  CE         4.0240   44.0580    8.8220 C.3   162  MET162      0.0692
    173  N          1.8480   39.7180    6.9270 N.am  163  PHE163     -0.1976
    174  CA         1.8870   38.2780    7.1510 C.3   163  PHE163      0.1639
    175  C          3.1050   37.6780    6.4620 C.2   163  PHE163      0.2290
    176  O          3.7810   36.8450    7.0460 O.2   163  PHE163     -0.2864
    177  CB         0.6160   37.6080    6.6580 C.3   163  PHE163      0.0560
    178  CG         0.5990   36.1130    6.8240 C.ar  163  PHE163     -0.0200
    179  CD1        0.1120   35.5360    7.9930 C.ar  163  PHE163     -0.0042
    180  CD2        1.0110   35.2710    5.7680 C.ar  163  PHE163     -0.0042
    181  CE1        0.0770   34.1380    8.1480 C.ar  163  PHE163     -0.0003
    182  CE2        0.9890   33.8850    5.9070 C.ar  163  PHE163     -0.0003
    183  CZ         0.5050   33.3110    7.1120 C.ar  163  PHE163     -0.0000
    184  N          6.2640   38.6090    8.6750 N.3   166  VAL166     -0.1231
    185  CA         6.2970   37.9280    9.9470 C.3   166  VAL166      0.1692
    186  C          6.5370   36.4380    9.6650 C.2   166  VAL166      0.2592
    187  O          7.5410   35.8350   10.1780 O.2   166  VAL166     -0.2718
    188  CB         4.9890   38.2220   10.7550 C.3   166  VAL166      0.0266
    189  CG1        4.8420   37.3640   11.9810 C.3   166  VAL166      0.0020
    190  CG2        4.9340   39.7650   11.1140 C.3   166  VAL166      0.0020
    191  N          5.7070   35.8520    8.8140 N.am  167  ASP167     -0.1974
    192  CA         5.8670   34.4370    8.4840 C.3   167  ASP167      0.1709
    193  C          7.2980   34.0800    8.0990 C.2   167  ASP167      0.2293
    194  O          7.8590   33.1480    8.6590 O.2   167  ASP167     -0.2864
    195  CB         4.8540   34.0120    7.4260 C.3   167  ASP167      0.1436
    196  CG         4.9170   32.5570    7.1260 C.2   167  ASP167      0.3671
    197  OD1        4.3780   31.7370    7.9040 O.co2 167  ASP167     -0.2456
    198  OD2        5.4870   32.2240    6.0580 O.co2 167  ASP167     -0.2456
    199  N          9.9030   34.2950   11.0630 N.3   170  ILE170     -0.1245
    200  CA         9.7690   33.0890   11.9000 C.3   170  ILE170      0.1561
    201  C         10.5210   31.9120   11.3030 C.2   170  ILE170      0.2260
    202  O         11.2980   31.2410   11.9850 O.2   170  ILE170     -0.2867
    203  CB         8.2880   32.6180   12.0050 C.3   170  ILE170      0.0252
    204  CG1        7.3790   33.6690   12.6590 C.3   170  ILE170      0.0019
    205  CG2        8.1620   31.3540   12.7610 C.3   170  ILE170      0.0019
    206  CD1        8.0250   34.3830   13.7450 C.3   170  ILE170      0.0001
@<TRIPOS>BOND
     1   144   143    1
     2   143   145    1
     3   143   140    1
     4   165   166    1
     5   125   126    2
     6   125   124    1
     7   180   182   ar
     8   180   178   ar
     9   182   183   ar
    10   127   128    1
    11   127   124    1
    12   198   196   ar
    13   141   142    2
    14   141   140    1
    15   123   124    1
    16   128   129    1
    17   175   176    2
    18   175   174    1
    19   140   139    1
    20   177   178    1
    21   177   174    1
    22   178   179   ar
    23   116   115    2
    24   173   174    1
    25   173   167   am
    26   166   167    1
    27   166   169    1
    28   133   131    1
    29   183   181   ar
    30   196   195    1
    31   196   197   ar
    32   139   136   am
    33   130   131    2
    34   130   129    1
    35   167   168    2
    36   131   132    1
    37   195   192    1
    38   134   135    1
    39   169   170    1
    40   179   181   ar
    41   115   114    1
    42   193   192    1
    43   193   194    2
    44   136   135    1
    45   136   137    2
    46   108   107    2
    47   192   191    1
    48   114   117    1
    49   114   113    1
    50   135   138    1
    51   184   185    1
    52   119   121   ar
    53   119   118   ar
    54   191   186   am
    55   172   171    1
    56   156   158    1
    57   156   157    1
    58   156   153    1
    59   117   118    1
    60   170   171    1
    61   148   149    2
    62   148   147    1
    63   154   155    2
    64   154   153    1
    65   157   159    1
    66   121   122   ar
    67   146   147    1
    68   118   120   ar
    69   107   113   am
    70   107   106    1
    71   186   185    1
    72   186   187    2
    73   153   152    1
    74   185   188    1
    75   147   150    1
    76   150   151    1
    77   122   120   ar
    78   188   190    1
    79   188   189    1
    80   106   109    1
    81   106   105    1
    82   112   110    1
    83   110   109    1
    84   110   111    1
    85   199   200    1
    86   201   200    1
    87   201   202    2
    88   160   161    1
    89     8     6    1
    90   162   163    2
    91   162   161    1
    92   200   203    1
    93   203   204    1
    94   203   205    1
    95   161   164    1
    96   100    99    2
    97     7     6    1
    98   204   206    1
    99     6     5    1
   100    49    48    1
   101    48    47    1
   102     5     2    1
   103    99    98    1
   104    64    63    1
   105   104   102   am
   106    65    63    1
   107    47    46    1
   108    98   101    1
   109    98    97    1
   110    25    26   ar
   111    25    23   ar
   112    26    24   ar
   113     2     1    1
   114     2     3    1
   115   101   102    1
   116    63    62    1
   117   102   103    2
   118    23    22   ar
   119    46    43    1
   120     3     4    2
   121    15    14    1
   122    24    22   ar
   123    62    59    1
   124    22    21    1
   125    88    87    1
   126    71    70    1
   127    43    44    1
   128    43    42    1
   129    14    13    1
   130    14    16    1
   131    45    44    2
   132    87    89    1
   133    87    86    1
   134    13    10    1
   135    57    55    1
   136    59    58    1
   137    59    60    1
   138    72    70    1
   139    40    39    2
   140    70    67    1
   141    21    18    1
   142    41    38    1
   143    58    52   am
   144    61    60    2
   145    93    92    2
   146    39    38    1
   147    56    55    1
   148    38    37    1
   149    55    54    1
   150    17    18    1
   151    17    11   am
   152    86    83    1
   153    18    19    1
   154    10     9    1
   155    10    11    1
   156    54    51    1
   157    11    12    2
   158    52    53    2
   159    52    51    1
   160    68    67    1
   161    68    69    2
   162    67    66    1
   163    34    36   ar
   164    34    32   ar
   165    92    91    1
   166    51    50    1
   167    36    35   ar
   168    96    94    1
   169    83    84    1
   170    83    82    1
   171    19    20    2
   172    32    31    1
   173    32    33   ar
   174    31    28    1
   175    85    84    2
   176    91    94    1
   177    91    90    1
   178    35    33   ar
   179    82    75   am
   180    94    95    1
   181    30    29    2
   182    80    79   ar
   183    29    28    1
   184    28    27    1
   185    75    76    2
   186    75    74    1
   187    79    78    1
   188    79    81   ar
   189    77    74    1
   190    77    78    1
   191    73    74    1
