@<TRIPOS>MOLECULE
tmp/2uxpA00.pdb
 186 173 0 0 0
SMALL
GASTEIGER

@<TRIPOS>ATOM
      1  N         17.2900   22.1110   -5.8930 N.3    59  LEU59      -0.1245
      2  CA        17.5260   23.4330   -5.3270 C.3    59  LEU59       0.1561
      3  C         18.4290   24.2580   -6.2580 C.2    59  LEU59       0.2260
      4  O         18.1770   25.4490   -6.4930 O.2    59  LEU59      -0.2867
      5  CB        18.1390   23.2940   -3.9310 C.3    59  LEU59       0.0270
      6  CG        18.5170   24.5470   -3.1280 C.3    59  LEU59       0.0019
      7  CD1       18.4060   24.2400   -1.6280 C.3    59  LEU59       0.0001
      8  CD2       19.9360   25.0270   -3.5050 C.3    59  LEU59       0.0001
      9  N         17.4630   26.2480   -9.6370 N.3    62  LEU62      -0.1231
     10  CA        16.7690   27.5080   -9.4130 C.3    62  LEU62       0.1693
     11  C         17.6540   28.7440   -9.6110 C.2    62  LEU62       0.2592
     12  O         17.1650   29.7990  -10.0370 O.2    62  LEU62      -0.2718
     13  CB        16.1480   27.5270   -8.0130 C.3    62  LEU62       0.0284
     14  CG        15.1400   26.4240   -7.6570 C.3    62  LEU62       0.0019
     15  CD1       14.5160   26.7040   -6.3010 C.3    62  LEU62       0.0001
     16  CD2       14.0580   26.2930   -8.7380 C.3    62  LEU62       0.0001
     17  N         18.9520   28.5980   -9.3140 N.am   63  HIS63      -0.1976
     18  CA        19.8840   29.7280   -9.3060 C.3    63  HIS63       0.1656
     19  C         20.4460   30.0440  -10.6850 C.2    63  HIS63       0.2291
     20  O         21.0100   31.1270  -10.9030 O.2    63  HIS63      -0.2864
     21  CB        21.0290   29.4810   -8.3160 C.3    63  HIS63       0.0771
     22  CG        20.5680   29.0540   -6.9570 C.ar   63  HIS63       0.0820
     23  ND1       19.5730   29.7160   -6.2650 N.ar   63  HIS63      -0.2267
     24  CD2       20.9670   28.0350   -6.1590 C.ar   63  HIS63       0.1154
     25  CE1       19.3760   29.1190   -5.1030 C.ar   63  HIS63       0.1986
     26  NE2       20.2110   28.0990   -5.0120 N.ar   63  HIS63      -0.2212
     27  N         19.0460   33.1430  -12.7720 N.3    66  HIS66      -0.1241
     28  CA        19.3160   34.4550  -12.1750 C.3    66  HIS66       0.1621
     29  C         20.8050   34.7790  -12.0020 C.2    66  HIS66       0.2264
     30  O         21.1580   35.9230  -11.7230 O.2    66  HIS66      -0.2867
     31  CB        18.5960   34.5690  -10.8250 C.3    66  HIS66       0.0745
     32  CG        17.2100   34.0000  -10.8360 C.ar   66  HIS66       0.0817
     33  ND1       16.2560   34.3820  -11.7560 N.ar   66  HIS66      -0.2268
     34  CD2       16.6180   33.0810  -10.0380 C.ar   66  HIS66       0.1154
     35  CE1       15.1370   33.7200  -11.5280 C.ar   66  HIS66       0.1986
     36  NE2       15.3300   32.9240  -10.4910 N.ar   66  HIS66      -0.2212
     37  N         22.2980   38.4340  -10.4150 N.3    70  ALA70      -0.1245
     38  CA        22.8280   38.2480   -9.0650 C.3    70  ALA70       0.1562
     39  C         24.2850   38.6700   -8.9670 C.2    70  ALA70       0.2260
     40  O         24.6440   39.4340   -8.0860 O.2    70  ALA70      -0.2867
     41  CB        22.6600   36.7920   -8.6160 C.3    70  ALA70       0.0290
     42  N         24.6840   42.4190   -9.4900 N.3    73  SER73      -0.1202
     43  CA        24.2120   43.1340   -8.3060 C.3    73  SER73       0.2020
     44  C         25.1880   43.0830   -7.1390 C.2    73  SER73       0.2618
     45  O         25.0670   43.8530   -6.1870 O.2    73  SER73      -0.2717
     46  CB        22.8430   42.6030   -7.8610 C.3    73  SER73       0.2103
     47  OG        22.9090   41.2270   -7.4960 O.3    73  SER73      -0.2182
     48  N         26.1500   42.1740   -7.2090 N.am   74  GLU74      -0.1979
     49  CA        27.1030   42.0240   -6.1300 C.3    74  GLU74       0.1602
     50  C         28.4040   42.7050   -6.4760 C.2    74  GLU74       0.2287
     51  O         29.0690   43.2270   -5.5890 O.2    74  GLU74      -0.2864
     52  CB        27.3310   40.5500   -5.8220 C.3    74  GLU74       0.0415
     53  CG        26.1120   39.8680   -5.2190 C.3    74  GLU74       0.1163
     54  CD        26.1530   38.3480   -5.4260 C.2    74  GLU74       0.3649
     55  OE1       26.5110   37.9040   -6.5630 O.co2  74  GLU74      -0.2457
     56  OE2       25.8190   37.5910   -4.4430 O.co2  74  GLU74      -0.2457
     57  N         19.2250   44.4020   -8.3440 N.3    85  MET85      -0.1245
     58  CA        18.4880   43.6720   -7.3270 C.3    85  MET85       0.1570
     59  C         16.9870   43.7250   -7.5960 C.2    85  MET85       0.2261
     60  O         16.2760   42.7470   -7.3850 O.2    85  MET85      -0.2867
     61  CB        18.8190   44.2300   -5.9550 C.3    85  MET85       0.0387
     62  CG        17.9440   43.6950   -4.8420 C.3    85  MET85       0.0595
     63  SD        18.8300   43.5560   -3.2840 S.3    85  MET85      -0.1393
     64  CE        20.0210   44.9280   -3.4280 C.3    85  MET85       0.0692
     65  N         16.2830   41.5110  -10.7220 N.3    88  LEU88      -0.1231
     66  CA        16.4030   40.1230  -10.2710 C.3    88  LEU88       0.1693
     67  C         15.1270   39.6070   -9.6050 C.2    88  LEU88       0.2591
     68  O         14.6550   38.5120   -9.9290 O.2    88  LEU88      -0.2718
     69  CB        17.6030   39.9510   -9.3310 C.3    88  LEU88       0.0284
     70  CG        17.9580   38.5410   -8.8470 C.3    88  LEU88       0.0019
     71  CD1       19.4330   38.4490   -8.5730 C.3    88  LEU88       0.0001
     72  CD2       17.1820   38.1630   -7.5930 C.3    88  LEU88       0.0001
     73  N         14.5710   40.3790   -8.6750 N.am   89  LEU89      -0.1980
     74  CA        13.3970   39.9070   -7.9260 C.3    89  LEU89       0.1596
     75  C         12.1870   39.8060   -8.8460 C.2    89  LEU89       0.2287
     76  O         11.3350   38.9420   -8.6730 O.2    89  LEU89      -0.2864
     77  CB        13.0970   40.8090   -6.7190 C.3    89  LEU89       0.0297
     78  CG        14.1930   41.0830   -5.6720 C.3    89  LEU89       0.0022
     79  CD1       13.6970   42.0220   -4.5830 C.3    89  LEU89       0.0001
     80  CD2       14.7700   39.8130   -5.0520 C.3    89  LEU89       0.0001
     81  N         12.5570   36.7620  -10.6100 N.3    92  VAL92      -0.1245
     82  CA        12.2610   35.6360   -9.7150 C.3    92  VAL92       0.1561
     83  C         10.7550   35.3700   -9.6670 C.2    92  VAL92       0.2260
     84  O         10.3040   34.2290   -9.8180 O.2    92  VAL92      -0.2867
     85  CB        12.7930   35.8720   -8.2830 C.3    92  VAL92       0.0252
     86  CG1       12.3140   34.7920   -7.3450 C.3    92  VAL92       0.0019
     87  CG2       14.2910   35.8990   -8.2930 C.3    92  VAL92       0.0019
     88  N          9.6540   25.7590  -12.2240 N.3   102  THR102     -0.1218
     89  CA        10.1190   26.5550  -11.0860 C.3   102  THR102      0.1862
     90  C          9.1190   26.5320   -9.9320 C.2   102  THR102      0.2287
     91  O          9.5130   26.4040   -8.7570 O.2   102  THR102     -0.2866
     92  CB        10.4330   27.9930  -11.5060 C.3   102  THR102      0.1770
     93  OG1       11.4320   27.9620  -12.5320 O.3   102  THR102     -0.2211
     94  CG2       10.9630   28.8120  -10.3320 C.3   102  THR102      0.0375
     95  N          9.8620   24.8470   -6.1700 N.3   106  ASN106     -0.1240
     96  CA         9.5610   25.6400   -4.9960 C.3   106  ASN106      0.1653
     97  C          8.4670   25.0290   -4.1340 C.2   106  ASN106      0.2266
     98  O          8.5650   25.0560   -2.9100 O.2   106  ASN106     -0.2867
     99  CB         9.1980   27.0710   -5.3700 C.3   106  ASN106      0.1155
    100  CG        10.4120   27.9270   -5.5360 C.2   106  ASN106      0.2627
    101  OD1       11.0240   27.9420   -6.6070 O.2   106  ASN106     -0.2716
    102  ND2       10.7940   28.6320   -4.4690 N.am  106  ASN106     -0.0877
    103  N          9.1920   23.9920   -0.3640 N.3   110  HIS110     -0.1241
    104  CA         8.4590   24.6700    0.6910 C.3   110  HIS110      0.1621
    105  C          7.3710   23.8070    1.3540 C.2   110  HIS110      0.2264
    106  O          7.1010   23.9620    2.5490 O.2   110  HIS110     -0.2867
    107  CB         7.8160   25.9360    0.1270 C.3   110  HIS110      0.0745
    108  CG         8.7910   27.0310   -0.1720 C.ar  110  HIS110      0.0817
    109  ND1        9.1640   27.9730    0.7650 N.ar  110  HIS110     -0.2268
    110  CD2        9.4490   27.3550   -1.3150 C.ar  110  HIS110      0.1154
    111  CE1       10.0220   28.8220    0.2160 C.ar  110  HIS110      0.1986
    112  NE2       10.2070   28.4720   -1.0470 N.ar  110  HIS110     -0.2212
    113  N         22.6830   32.6510   -0.0170 N.3   133  CYS133     -0.1235
    114  CA        21.8000   33.7120   -0.4350 C.3   133  CYS133      0.1677
    115  C         22.0400   34.9240    0.4600 C.2   133  CYS133      0.2270
    116  O         22.2120   36.0320   -0.0250 O.2   133  CYS133     -0.2867
    117  CB        20.3470   33.2480   -0.3520 C.3   133  CYS133      0.0956
    118  SG        19.2340   34.2500   -1.3400 S.3   133  CYS133     -0.0801
    119  N         24.6580   35.9770    2.3170 N.3   135  LYS135     -0.1231
    120  CA        25.8870   36.7180    2.0560 C.3   135  LYS135      0.1693
    121  C         25.7160   37.5570    0.8000 C.2   135  LYS135      0.2593
    122  O         26.1940   38.6910    0.7370 O.2   135  LYS135     -0.2718
    123  CB        27.1450   35.8190    2.0050 C.3   135  LYS135      0.0285
    124  CG        27.1300   34.6530    1.0060 C.3   135  LYS135      0.0035
    125  CD        27.4320   35.0770   -0.4500 C.3   135  LYS135      0.0206
    126  CE        27.2440   33.9120   -1.4370 C.3   135  LYS135      0.1093
    127  NZ        26.8980   34.3520   -2.8470 N.3   135  LYS135     -0.1314
    128  N         24.9860   37.0120   -0.1680 N.am  136  GLY136     -0.1942
    129  CA        24.7310   37.6910   -1.4340 C.3   136  GLY136      0.2014
    130  C         24.0490   39.0340   -1.2860 C.2   136  GLY136      0.2638
    131  O         24.5880   40.0750   -1.6960 O.2   136  GLY136     -0.2714
    132  N         22.8600   39.0010   -0.6910 N.am  137  ILE137     -0.1977
    133  CA        22.0380   40.1900   -0.5110 C.3   137  ILE137      0.1596
    134  C         22.7550   41.2480    0.3120 C.2   137  ILE137      0.2287
    135  O         22.5210   42.4340    0.1200 O.2   137  ILE137     -0.2864
    136  CB        20.7010   39.8540    0.1690 C.3   137  ILE137      0.0276
    137  CG1       20.0210   38.6780   -0.5460 C.3   137  ILE137      0.0022
    138  CG2       19.7970   41.0860    0.2160 C.3   137  ILE137      0.0022
    139  CD1       18.8460   38.0800    0.2060 C.3   137  ILE137      0.0001
    140  N         25.3510   43.1810   -2.1000 N.3   140  ALA140     -0.1245
    141  CA        24.4990   43.9740   -2.9670 C.3   140  ALA140      0.1562
    142  C         23.9610   45.2010   -2.2590 C.2   140  ALA140      0.2260
    143  O         24.0950   46.3060   -2.7620 O.2   140  ALA140     -0.2867
    144  CB        23.3520   43.1220   -3.5000 C.3   140  ALA140      0.0290
    145  N         14.5600   41.4870    4.1020 N.3   163  MET163     -0.1230
    146  CA        14.1250   41.3640    2.7280 C.3   163  MET163      0.1702
    147  C         13.9110   39.9080    2.3680 C.2   163  MET163      0.2592
    148  O         12.8720   39.5500    1.8060 O.2   163  MET163     -0.2718
    149  CB        15.1140   42.0090    1.7640 C.3   163  MET163      0.0401
    150  CG        14.4770   42.3280    0.4240 C.3   163  MET163      0.0596
    151  SD        15.7370   42.4610   -0.8830 S.3   163  MET163     -0.1393
    152  CE        16.2390   40.7170   -1.0630 C.3   163  MET163      0.0692
    153  N         14.8900   39.0680    2.6910 N.am  164  PHE164     -0.1976
    154  CA        14.7690   37.6530    2.3960 C.3   164  PHE164      0.1639
    155  C         13.5120   37.1240    3.0490 C.2   164  PHE164      0.2290
    156  O         12.7350   36.4260    2.4160 O.2   164  PHE164     -0.2864
    157  CB        15.9590   36.8700    2.9140 C.3   164  PHE164      0.0560
    158  CG        15.8000   35.3740    2.7770 C.ar  164  PHE164     -0.0200
    159  CD1       16.1860   34.7220    1.6090 C.ar  164  PHE164     -0.0042
    160  CD2       15.2600   34.6070    3.8250 C.ar  164  PHE164     -0.0042
    161  CE1       16.0330   33.3240    1.4880 C.ar  164  PHE164     -0.0003
    162  CE2       15.1000   33.2260    3.7010 C.ar  164  PHE164     -0.0003
    163  CZ        15.4940   32.5900    2.5320 C.ar  164  PHE164     -0.0000
    164  N         10.5990   38.1680    1.0040 N.3   167  VAL167     -0.1231
    165  CA        10.5240   37.5010   -0.2760 C.3   167  VAL167      0.1692
    166  C         10.1240   36.0420   -0.0920 C.2   167  VAL167      0.2592
    167  O          9.2530   35.5370   -0.8120 O.2   167  VAL167     -0.2718
    168  CB        11.8410   37.6640   -1.0660 C.3   167  VAL167      0.0266
    169  CG1       11.8660   36.7730   -2.3180 C.3   167  VAL167      0.0020
    170  CG2       12.0250   39.1410   -1.4690 C.3   167  VAL167      0.0020
    171  N         10.7400   35.3740    0.8830 N.am  168  ASP168     -0.1974
    172  CA        10.4850   33.9520    1.1250 C.3   168  ASP168      0.1709
    173  C          9.0240   33.7080    1.5380 C.2   168  ASP168      0.2293
    174  O          8.3630   32.7970    1.0260 O.2   168  ASP168     -0.2864
    175  CB        11.4580   33.3900    2.1620 C.3   168  ASP168      0.1436
    176  CG        11.4050   31.8630    2.2490 C.2   168  ASP168      0.3671
    177  OD1       11.6830   31.1870    1.2240 O.co2 168  ASP168     -0.2456
    178  OD2       11.0970   31.3360    3.3500 O.co2 168  ASP168     -0.2456
    179  N          6.5120   34.2670   -1.5260 N.3   171  ILE171     -0.1245
    180  CA         6.5190   33.1080   -2.3970 C.3   171  ILE171      0.1561
    181  C          5.6090   32.0120   -1.8180 C.2   171  ILE171      0.2260
    182  O          4.6800   31.5260   -2.4800 O.2   171  ILE171     -0.2867
    183  CB         7.9660   32.6170   -2.6060 C.3   171  ILE171      0.0252
    184  CG1        8.7230   33.6460   -3.4830 C.3   171  ILE171      0.0019
    185  CG2        7.9900   31.2380   -3.2530 C.3   171  ILE171      0.0019
    186  CD1       10.2390   33.5530   -3.4310 C.3   171  ILE171      0.0001
@<TRIPOS>BOND
     1    27    28    1
     2    93    92    1
     3    88    89    1
     4    28    29    1
     5    28    31    1
     6    29    30    2
     7    33    35   ar
     8    33    32   ar
     9    35    36   ar
    10    92    89    1
    11    92    94    1
    12    89    90    1
    13    20    19    2
    14    32    31    1
    15    32    34   ar
    16    65    66    1
    17    19    18    1
    18    81    82    1
    19    36    34   ar
    20    37    38    1
    21    66    67    1
    22    66    69    1
    23    12    11    2
    24    90    91    2
    25    68    67    2
    26    84    83    2
    27    82    83    1
    28    82    85    1
    29     9    10    1
    30    11    10    1
    31    11    17   am
    32    67    73   am
    33    42    43    1
    34    10    13    1
    35    69    70    1
    36    17    18    1
    37    18    21    1
    38    38    39    1
    39    38    41    1
    40    39    40    2
    41    70    71    1
    42    70    72    1
    43    75    76    2
    44    75    74    1
    45    16    14    1
    46    73    74    1
    47    57    58    1
    48    21    22    1
    49    43    46    1
    50    43    44    1
    51    87    85    1
    52    85    86    1
    53    13    14    1
    54    74    77    1
    55    46    47    1
    56    14    15    1
    57    59    60    2
    58    59    58    1
    59    58    61    1
    60    48    44   am
    61    48    49    1
    62    44    45    2
    63    22    23   ar
    64    22    24   ar
    65    77    78    1
    66   101   100    2
    67    55    54   ar
    68     4     3    2
    69    50    49    1
    70    50    51    2
    71    23    25   ar
    72     3     2    1
    73    95    96    1
    74    24    26   ar
    75    49    52    1
    76    61    62    1
    77     1     2    1
    78    52    53    1
    79    78    80    1
    80    78    79    1
    81   100    99    1
    82   100   102   am
    83    54    53    1
    84    54    56   ar
    85    99    96    1
    86     2     5    1
    87    25    26   ar
    88    96    97    1
    89    62    63    1
    90    97    98    2
    91     5     6    1
    92     8     6    1
    93   144   141    1
    94   184   186    1
    95   184   183    1
    96    64    63    1
    97   185   183    1
    98     6     7    1
    99   141   142    1
   100   141   140    1
   101   127   126    1
   102   143   142    2
   103   183   180    1
   104   182   181    2
   105   180   181    1
   106   180   179    1
   107   169   168    1
   108   131   130    2
   109   170   168    1
   110   126   125    1
   111   129   130    1
   112   129   128    1
   113   118   117    1
   114   110   112   ar
   115   110   108   ar
   116   130   132   am
   117   168   165    1
   118   152   151    1
   119   112   111   ar
   120   151   150    1
   121   167   166    2
   122   132   133    1
   123   137   136    1
   124   137   139    1
   125   133   136    1
   126   133   134    1
   127   125   124    1
   128   114   117    1
   129   114   113    1
   130   114   115    1
   131   103   104    1
   132   165   166    1
   133   165   164    1
   134   108   107    1
   135   108   109   ar
   136   128   121   am
   137   166   171   am
   138   116   115    2
   139   135   134    2
   140   107   104    1
   141   136   138    1
   142   111   109   ar
   143   150   149    1
   144   104   105    1
   145   122   121    2
   146   121   120    1
   147   171   172    1
   148   124   123    1
   149   174   173    2
   150   172   173    1
   151   172   175    1
   152   177   176   ar
   153   105   106    2
   154   161   159   ar
   155   161   163   ar
   156   159   158   ar
   157   149   146    1
   158   148   147    2
   159   123   120    1
   160   120   119    1
   161   175   176    1
   162   176   178   ar
   163   147   153   am
   164   147   146    1
   165   154   153    1
   166   154   157    1
   167   154   155    1
   168   156   155    2
   169   163   162   ar
   170   146   145    1
   171   158   157    1
   172   158   160   ar
   173   162   160   ar
