@<TRIPOS>MOLECULE
tmp/2uxrA01.pdb
 90 85 0 0 0
SMALL
GASTEIGER

@<TRIPOS>ATOM
      1  N         -5.2310   18.5130   40.0520 N.3   284  SER284     -0.1202
      2  CA        -4.9580   19.6090   40.9270 C.3   284  SER284      0.2020
      3  C         -3.6260   19.3430   41.5650 C.2   284  SER284      0.2619
      4  O         -3.1070   18.2200   41.5350 O.2   284  SER284     -0.2717
      5  CB        -6.0310   19.7340   42.0000 C.3   284  SER284      0.2103
      6  OG        -5.9320   18.6630   42.9190 O.3   284  SER284     -0.2182
      7  N         -3.0720   20.3830   42.1500 N.am  285  LEU285     -0.1965
      8  CA        -1.8540   20.2510   42.9100 C.3   285  LEU285      0.1728
      9  C         -1.8280   19.1750   43.9640 C.2   285  LEU285      0.2616
     10  O         -0.7390   18.7540   44.3500 O.2   285  LEU285     -0.2715
     11  CB        -1.5490   21.5480   43.6380 C.3   285  LEU285      0.0311
     12  CG        -0.9660   22.6500   42.8350 C.3   285  LEU285      0.0022
     13  CD1       -0.6390   23.6690   43.8760 C.3   285  LEU285      0.0001
     14  CD2        0.2870   22.1510   42.1290 C.3   285  LEU285      0.0001
     15  N         -2.9800   18.8080   44.5130 N.am  286  ALA286     -0.1977
     16  CA        -3.0050   17.8230   45.5710 C.3   286  ALA286      0.1597
     17  C         -2.8920   16.4570   44.9830 C.2   286  ALA286      0.2287
     18  O         -2.5150   15.5000   45.6900 O.2   286  ALA286     -0.2864
     19  CB        -4.2070   17.9310   46.3770 C.3   286  ALA286      0.0319
     20  N          2.8970   20.2320   47.3470 N.3   305  HIS305     -0.1226
     21  CA         2.1350   21.4320   47.3730 C.3   305  HIS305      0.1752
     22  C          2.4460   22.1910   48.6500 C.2   305  HIS305      0.2596
     23  O          3.3480   21.7860   49.3720 O.2   305  HIS305     -0.2718
     24  CB         0.6660   21.1030   47.1410 C.3   305  HIS305      0.0759
     25  CG         0.0320   20.2270   48.1750 C.ar  305  HIS305      0.0818
     26  ND1       -0.1780   20.6440   49.4690 N.ar  305  HIS305     -0.2268
     27  CD2       -0.5530   19.0050   48.0790 C.ar  305  HIS305      0.1154
     28  CE1       -0.8200   19.6980   50.1420 C.ar  305  HIS305      0.1986
     29  NE2       -1.0560   18.6930   49.3220 N.ar  305  HIS305     -0.2212
     30  N          1.7370   23.2910   48.9220 N.am  306  GLY306     -0.1957
     31  CA         1.9650   24.1370   50.0930 C.3   306  GLY306      0.1869
     32  C          0.9600   23.8520   51.1960 C.2   306  GLY306      0.2309
     33  O          0.2500   22.8740   51.1450 O.2   306  GLY306     -0.2863
     34  N         -1.7240   25.2880   52.2490 N.3   308  VAL308     -0.1245
     35  CA        -3.0740   25.8250   52.0000 C.3   308  VAL308      0.1561
     36  C         -3.5050   26.8730   53.0050 C.2   308  VAL308      0.2260
     37  O         -4.5010   26.6950   53.7570 O.2   308  VAL308     -0.2867
     38  CB        -4.1300   24.7620   51.8920 C.3   308  VAL308      0.0252
     39  CG1       -5.1450   25.1850   50.8190 C.3   308  VAL308      0.0019
     40  CG2       -3.5270   23.4400   51.5700 C.3   308  VAL308      0.0019
     41  N         -7.3100   28.2140   53.1680 N.3   311  HIS311     -0.1241
     42  CA        -8.1710   27.2550   53.8770 C.3   311  HIS311      0.1621
     43  C         -7.9240   27.2770   55.3660 C.2   311  HIS311      0.2264
     44  O         -8.8600   27.1880   56.1320 O.2   311  HIS311     -0.2867
     45  CB        -7.9650   25.8440   53.3850 C.3   311  HIS311      0.0745
     46  CG        -8.4440   25.6250   51.9860 C.ar  311  HIS311      0.0817
     47  ND1       -8.7470   24.3740   51.4890 N.ar  311  HIS311     -0.2268
     48  CD2       -8.6710   26.4970   50.9770 C.ar  311  HIS311      0.1154
     49  CE1       -9.0600   24.4800   50.2130 C.ar  311  HIS311      0.1986
     50  NE2       -9.0490   25.7580   49.8840 N.ar  311  HIS311     -0.2212
     51  N        -12.9320   21.9800   52.3070 N.3   322  SER322     -0.1202
     52  CA       -12.8360   20.8100   51.4450 C.3   322  SER322      0.2020
     53  C        -11.4110   20.8610   50.9250 C.2   322  SER322      0.2619
     54  O        -11.1600   21.1620   49.7450 O.2   322  SER322     -0.2717
     55  CB       -13.8350   20.9310   50.2820 C.3   322  SER322      0.2103
     56  OG       -14.1760   19.6750   49.6970 O.3   322  SER322     -0.2182
     57  N        -10.4680   20.6220   51.8180 N.am  323  THR323     -0.1938
     58  CA        -9.0460   20.6150   51.4660 C.3   323  THR323      0.2028
     59  C         -8.7190   19.2200   51.0480 C.2   323  THR323      0.2642
     60  O         -8.9880   18.2860   51.8030 O.2   323  THR323     -0.2714
     61  CB        -8.1360   21.0780   52.6520 C.3   323  THR323      0.1808
     62  OG1       -8.5840   22.3620   53.1100 O.3   323  THR323     -0.2208
     63  CG2       -6.6700   21.2260   52.2280 C.3   323  THR323      0.0379
     64  N         -8.1920   19.0690   49.8370 N.am  324  ASN324     -0.1971
     65  CA        -7.8260   17.7660   49.3090 C.3   324  ASN324      0.1688
     66  C         -6.6340   17.1250   50.0650 C.2   324  ASN324      0.2292
     67  O         -5.5000   17.5860   49.9200 O.2   324  ASN324     -0.2864
     68  CB        -7.5130   17.8520   47.7960 C.3   324  ASN324      0.1181
     69  CG        -7.4140   16.4670   47.1370 C.2   324  ASN324      0.2629
     70  OD1       -7.3020   15.4470   47.8130 O.2   324  ASN324     -0.2716
     71  ND2       -7.4690   16.4380   45.8350 N.am  324  ASN324     -0.0877
     72  N        -11.9280   20.7980   44.9020 N.3   371  ASP371     -0.1239
     73  CA       -10.9730   20.9890   43.7900 C.3   371  ASP371      0.1674
     74  C        -11.2320   20.0150   42.6350 C.2   371  ASP371      0.2266
     75  O        -11.1590   20.3780   41.4590 O.2   371  ASP371     -0.2867
     76  CB        -9.4840   20.8810   44.2360 C.3   371  ASP371      0.1410
     77  CG        -9.1370   19.5510   44.8460 C.2   371  ASP371      0.3668
     78  OD1       -9.9410   18.9380   45.6080 O.co2 371  ASP371     -0.2456
     79  OD2       -8.0320   19.0770   44.5680 O.co2 371  ASP371     -0.2456
     80  N        -14.9550   20.4950   40.7800 N.3   374  ARG374     -0.1245
     81  CA       -14.9580   21.5410   39.7930 C.3   374  ARG374      0.1563
     82  C        -14.5840   21.0150   38.4310 C.2   374  ARG374      0.2260
     83  O        -14.7820   21.7160   37.4360 O.2   374  ARG374     -0.2867
     84  CB       -13.8730   22.5710   40.1290 C.3   374  ARG374      0.0307
     85  CG       -14.2850   23.7800   40.8880 C.3   374  ARG374      0.0489
     86  CD       -12.9800   24.5870   41.2740 C.3   374  ARG374      0.2205
     87  NE       -12.8380   24.6890   42.7340 N.pl3 374  ARG374     -0.0865
     88  CZ       -11.6810   24.7350   43.3920 C.cat 374  ARG374      0.5346
     89  NH1      -10.5250   24.6250   42.7320 N.pl3 374  ARG374      0.1354
     90  NH2      -11.6760   24.8520   44.7310 N.pl3 374  ARG374      0.1354
@<TRIPOS>BOND
     1    83    82    2
     2    82    81    1
     3    81    84    1
     4    81    80    1
     5     1     2    1
     6    84    85    1
     7    85    86    1
     8     2     3    1
     9     2     5    1
    10    86    87    1
    11    75    74    2
    12     4     3    2
    13     3     7   am
    14     5     6    1
    15    14    12    1
    16     7     8    1
    17    74    73    1
    18    89    88    1
    19    87    88    2
    20    12    11    1
    21    12    13    1
    22     8    11    1
    23     8     9    1
    24    88    90    1
    25    73    76    1
    26    73    72    1
    27     9    10    2
    28     9    15   am
    29    76    77    1
    30    15    16    1
    31    79    77   ar
    32    77    78   ar
    33    17    16    1
    34    17    18    2
    35    16    19    1
    36    71    69   am
    37    69    68    1
    38    69    70    2
    39    24    21    1
    40    24    25    1
    41    20    21    1
    42    21    22    1
    43    68    65    1
    44    27    25   ar
    45    27    29   ar
    46    25    26   ar
    47    22    30   am
    48    22    23    2
    49    30    31    1
    50    65    64    1
    51    65    66    1
    52    29    28   ar
    53    26    28   ar
    54    56    55    1
    55    54    53    2
    56    64    59   am
    57    50    49   ar
    58    50    48   ar
    59    67    66    2
    60    31    32    1
    61    49    47   ar
    62    55    52    1
    63    39    38    1
    64    53    52    1
    65    53    57   am
    66    48    46   ar
    67    59    58    1
    68    59    60    2
    69    33    32    2
    70    52    51    1
    71    58    57    1
    72    58    61    1
    73    47    46   ar
    74    40    38    1
    75    38    35    1
    76    46    45    1
    77    35    34    1
    78    35    36    1
    79    63    61    1
    80    61    62    1
    81    36    37    2
    82    41    42    1
    83    45    42    1
    84    42    43    1
    85    43    44    2
