@<TRIPOS>MOLECULE
tmp/2uxuB00.pdb
 154 142 0 0 0
SMALL
GASTEIGER

@<TRIPOS>ATOM
      1  N         -1.4480   26.9900   18.7960 N.3    61  LEU61      -0.1231
      2  CA        -0.6710   28.2900   18.7090 C.3    61  LEU61       0.1693
      3  C         -1.4630   29.6290   18.9340 C.2    61  LEU61       0.2592
      4  O         -0.8730   30.6220   19.3950 O.2    61  LEU61      -0.2718
      5  CB         0.0940   28.3840   17.3620 C.3    61  LEU61       0.0284
      6  CG         1.0390   27.2440   17.0220 C.3    61  LEU61       0.0019
      7  CD1        1.5490   27.3760   15.5870 C.3    61  LEU61       0.0001
      8  CD2        2.1700   27.2070   18.0090 C.3    61  LEU61       0.0001
      9  N         -2.7500   29.6690   18.5420 N.am   62  HIS62      -0.1976
     10  CA        -3.5540   30.9410   18.5790 C.3    62  HIS62       0.1656
     11  C         -3.9420   31.3450   19.9910 C.2    62  HIS62       0.2291
     12  O         -4.0820   32.5240   20.2780 O.2    62  HIS62      -0.2864
     13  CB        -4.8200   30.8570   17.6880 C.3    62  HIS62       0.0771
     14  CG        -4.6110   30.0890   16.4310 C.ar   62  HIS62       0.0820
     15  ND1       -3.4900   30.2530   15.6410 N.ar   62  HIS62      -0.2267
     16  CD2       -5.3260   29.0840   15.8700 C.ar   62  HIS62       0.1154
     17  CE1       -3.5260   29.3880   14.6400 C.ar   62  HIS62       0.1986
     18  NE2       -4.6240   28.6570   14.7590 N.ar   62  HIS62      -0.2212
     19  N         -2.1350   34.2650   22.1310 N.3    65  HIS65      -0.1241
     20  CA        -2.2410   35.6050   21.5340 C.3    65  HIS65       0.1621
     21  C         -3.6560   36.1350   21.4720 C.2    65  HIS65       0.2264
     22  O         -3.8560   37.3230   21.4770 O.2    65  HIS65      -0.2867
     23  CB        -1.6000   35.6040   20.1420 C.3    65  HIS65       0.0745
     24  CG        -0.2520   34.9920   20.1310 C.ar   65  HIS65       0.0817
     25  ND1        0.7780   35.4660   20.9180 N.ar   65  HIS65      -0.2268
     26  CD2        0.2210   33.8850   19.5150 C.ar   65  HIS65       0.1154
     27  CE1        1.8310   34.6860   20.7750 C.ar   65  HIS65       0.1986
     28  NE2        1.5180   33.7150   19.9380 N.ar   65  HIS65      -0.2212
     29  N         -4.8620   39.7870   19.7680 N.3    69  ALA69      -0.1245
     30  CA        -5.3920   39.6390   18.4190 C.3    69  ALA69       0.1562
     31  C         -6.7270   40.3140   18.3390 C.2    69  ALA69       0.2260
     32  O         -6.8870   41.2800   17.6010 O.2    69  ALA69      -0.2867
     33  CB        -5.5190   38.1600   18.0390 C.3    69  ALA69       0.0290
     34  N         -8.2390   43.8720   16.4910 N.3    73  GLU73      -0.1245
     35  CA        -9.2190   43.7370   15.4160 C.3    73  GLU73       0.1567
     36  C        -10.5650   44.3990   15.7790 C.2    73  GLU73       0.2260
     37  O        -11.6450   43.9660   15.3230 O.2    73  GLU73      -0.2867
     38  CB        -9.4100   42.2600   15.0800 C.3    73  GLU73       0.0388
     39  CG        -8.2070   41.6480   14.3390 C.3    73  GLU73       0.1160
     40  CD        -8.0040   40.1530   14.6290 C.2    73  GLU73       0.3649
     41  OE1       -9.0140   39.3800   14.5560 O.co2  73  GLU73      -0.2457
     42  OE2       -6.8190   39.7460   14.9050 O.co2  73  GLU73      -0.2457
     43  N         -1.2040   45.3160   17.8580 N.3    84  MET84      -0.1245
     44  CA        -0.4720   44.6070   16.8460 C.3    84  MET84       0.1570
     45  C          1.0240   44.5930   17.1450 C.2    84  MET84       0.2261
     46  O          1.6450   43.5730   17.0260 O.2    84  MET84      -0.2867
     47  CB        -0.7350   45.2340   15.5080 C.3    84  MET84       0.0387
     48  CG        -0.7330   44.2480   14.3600 C.3    84  MET84       0.0595
     49  SD        -1.4630   44.9680   12.8470 S.3    84  MET84      -0.1393
     50  CE        -0.2240   46.1820   12.4220 C.3    84  MET84       0.0692
     51  N          1.2820   42.2360   20.1990 N.3    87  LEU87      -0.1231
     52  CA         1.0280   40.9040   19.6960 C.3    87  LEU87       0.1693
     53  C          2.2630   40.3120   19.0360 C.2    87  LEU87       0.2591
     54  O          2.6490   39.2010   19.3280 O.2    87  LEU87      -0.2718
     55  CB        -0.0930   40.9240   18.6940 C.3    87  LEU87       0.0284
     56  CG        -0.3710   39.4800   18.3160 C.3    87  LEU87       0.0019
     57  CD1       -1.7870   39.2920   17.8470 C.3    87  LEU87       0.0001
     58  CD2        0.6040   39.0060   17.2760 C.3    87  LEU87       0.0001
     59  N          2.8680   41.0750   18.1350 N.am   88  LEU88      -0.1980
     60  CA         4.0150   40.6170   17.3910 C.3    88  LEU88       0.1596
     61  C          5.1800   40.3130   18.2790 C.2    88  LEU88       0.2287
     62  O          5.8750   39.3020   18.0640 O.2    88  LEU88      -0.2864
     63  CB         4.3960   41.6300   16.3060 C.3    88  LEU88       0.0297
     64  CG         3.5190   41.4990   15.0640 C.3    88  LEU88       0.0022
     65  CD1        3.8580   42.5610   14.0480 C.3    88  LEU88       0.0001
     66  CD2        3.6710   40.1140   14.4780 C.3    88  LEU88       0.0001
     67  N          4.4900   37.1190   19.9690 N.3    91  VAL91      -0.1245
     68  CA         4.7240   36.0400   18.9950 C.3    91  VAL91       0.1561
     69  C          6.1870   35.6870   18.9570 C.2    91  VAL91       0.2260
     70  O          6.5460   34.5280   18.9960 O.2    91  VAL91      -0.2867
     71  CB         4.1700   36.3880   17.5580 C.3    91  VAL91       0.0252
     72  CG1        4.7920   35.4880   16.4800 C.3    91  VAL91       0.0019
     73  CG2        2.5880   36.2580   17.5230 C.3    91  VAL91       0.0019
     74  N          8.1140   32.2230   20.7150 N.3    95  LEU95      -0.1245
     75  CA         8.9040   31.3630   19.9000 C.3    95  LEU95       0.1561
     76  C         10.2660   31.1580   20.5220 C.2    95  LEU95       0.2260
     77  O         10.8020   30.0590   20.5100 O.2    95  LEU95      -0.2867
     78  CB         9.1110   32.0290   18.5320 C.3    95  LEU95       0.0270
     79  CG         8.3040   31.6140   17.3020 C.3    95  LEU95       0.0019
     80  CD1        8.8760   32.4220   16.1570 C.3    95  LEU95       0.0001
     81  CD2        8.4360   30.0610   17.0340 C.3    95  LEU95       0.0001
     82  N          5.8920   25.9920   21.6090 N.3   101  THR101     -0.1218
     83  CA         5.7150   26.8850   20.4610 C.3   101  THR101      0.1862
     84  C          6.7050   26.7050   19.3550 C.2   101  THR101      0.2287
     85  O          6.3080   26.5510   18.1890 O.2   101  THR101     -0.2866
     86  CB         5.6700   28.3290   20.8840 C.3   101  THR101      0.1770
     87  OG1        4.6560   28.4640   21.8970 O.3   101  THR101     -0.2211
     88  CG2        5.2890   29.1570   19.7390 C.3   101  THR101      0.0375
     89  N          5.9500   25.0130   15.6530 N.3   105  ASN105     -0.1240
     90  CA         6.2860   25.8490   14.4780 C.3   105  ASN105      0.1653
     91  C          7.2860   25.1560   13.5870 C.2   105  ASN105      0.2266
     92  O          7.1260   25.1160   12.3670 O.2   105  ASN105     -0.2867
     93  CB         6.8590   27.1600   14.8960 C.3   105  ASN105      0.1155
     94  CG         5.8030   28.1700   15.2420 C.2   105  ASN105      0.2627
     95  OD1        5.3090   28.2130   16.3770 O.2   105  ASN105     -0.2716
     96  ND2        5.4520   28.9970   14.2850 N.am  105  ASN105     -0.0877
     97  N          6.3810   24.3300    9.7400 N.3   109  HIS109     -0.1241
     98  CA         7.2250   24.8190    8.6810 C.3   109  HIS109      0.1621
     99  C          8.1240   23.7990    8.0210 C.2   109  HIS109      0.2264
    100  O          8.3380   23.9090    6.8240 O.2   109  HIS109     -0.2867
    101  CB         8.0940   25.9780    9.1440 C.3   109  HIS109      0.0745
    102  CG         7.3260   27.2160    9.4950 C.ar  109  HIS109      0.0817
    103  ND1        7.3700   28.3610    8.7280 N.ar  109  HIS109     -0.2268
    104  CD2        6.5530   27.5120   10.5720 C.ar  109  HIS109      0.1154
    105  CE1        6.6480   29.3050    9.3150 C.ar  109  HIS109      0.1986
    106  NE2        6.1370   28.8120   10.4300 N.ar  109  HIS109     -0.2212
    107  N         -6.2230   34.2190    9.2860 N.3   132  CYS132     -0.1235
    108  CA        -5.2020   35.1290    9.7790 C.3   132  CYS132      0.1677
    109  C         -5.1330   36.4050    8.9690 C.2   132  CYS132      0.2270
    110  O         -4.8570   37.4560    9.5060 O.2   132  CYS132     -0.2867
    111  CB        -3.8380   34.4180    9.7580 C.3   132  CYS132      0.0956
    112  SG        -2.4820   35.3480   10.4720 S.3   132  CYS132     -0.0801
    113  N         -5.4470   40.3390   10.0570 N.3   136  ILE136     -0.1245
    114  CA        -4.4530   41.3830    9.7820 C.3   136  ILE136      0.1561
    115  C         -5.0680   42.5840    9.0530 C.2   136  ILE136      0.2260
    116  O         -4.7150   43.7520    9.3440 O.2   136  ILE136     -0.2867
    117  CB        -3.2120   40.8540    9.0230 C.3   136  ILE136      0.0252
    118  CG1       -2.5640   39.7370    9.8120 C.3   136  ILE136      0.0019
    119  CG2       -2.1840   42.0020    8.7600 C.3   136  ILE136      0.0019
    120  CD1       -1.4590   39.0180    9.0520 C.3   136  ILE136      0.0001
    121  N          2.7700   41.7460    5.2950 N.3   162  MET162     -0.1230
    122  CA         3.0470   41.6470    6.6890 C.3   162  MET162      0.1702
    123  C          3.1490   40.2430    7.1560 C.2   162  MET162      0.2592
    124  O          4.1110   39.8690    7.8240 O.2   162  MET162     -0.2718
    125  CB         1.9540   42.3380    7.4560 C.3   162  MET162      0.0401
    126  CG         2.4740   43.5040    8.1170 C.3   162  MET162      0.0596
    127  SD         3.2270   43.0110    9.6290 S.3   162  MET162     -0.1393
    128  CE         4.8520   43.6560    9.3210 C.3   162  MET162      0.0692
    129  N          2.1200   39.4760    6.8800 N.am  163  PHE163     -0.1976
    130  CA         2.1650   38.0730    7.1130 C.3   163  PHE163      0.1639
    131  C          3.4190   37.4720    6.4800 C.2   163  PHE163      0.2290
    132  O          4.1310   36.6990    7.1280 O.2   163  PHE163     -0.2864
    133  CB         0.9030   37.4070    6.5780 C.3   163  PHE163      0.0560
    134  CG         0.9790   35.9240    6.5530 C.ar  163  PHE163     -0.0200
    135  CD1        0.4190   35.1740    7.5890 C.ar  163  PHE163     -0.0042
    136  CD2        1.6390   35.2580    5.4870 C.ar  163  PHE163     -0.0042
    137  CE1        0.5270   33.8310    7.6050 C.ar  163  PHE163     -0.0003
    138  CE2        1.7430   33.9080    5.4850 C.ar  163  PHE163     -0.0003
    139  CZ         1.1950   33.1760    6.5540 C.ar  163  PHE163     -0.0000
    140  N          6.7100   38.4300    8.5440 N.3   166  VAL166     -0.1245
    141  CA         6.6930   37.7450    9.8210 C.3   166  VAL166      0.1561
    142  C          6.8420   36.2310    9.6160 C.2   166  VAL166      0.2260
    143  O          7.7040   35.5980   10.2140 O.2   166  VAL166     -0.2867
    144  CB         5.3930   38.0860   10.5630 C.3   166  VAL166      0.0252
    145  CG1        5.1600   37.1510   11.8320 C.3   166  VAL166      0.0019
    146  CG2        5.3620   39.6530   10.9040 C.3   166  VAL166      0.0019
    147  N         10.1860   34.1410   10.8930 N.3   170  ILE170     -0.1245
    148  CA        10.0890   33.0210   11.8160 C.3   170  ILE170      0.1561
    149  C         10.7880   31.7900   11.2550 C.2   170  ILE170      0.2260
    150  O         11.6430   31.1930   11.9140 O.2   170  ILE170     -0.2867
    151  CB         8.5850   32.6570   12.1370 C.3   170  ILE170      0.0252
    152  CG1        7.9420   33.7970   12.9520 C.3   170  ILE170      0.0019
    153  CG2        8.5330   31.3280   12.8410 C.3   170  ILE170      0.0019
    154  CD1        6.4300   33.7800   13.0070 C.3   170  ILE170      0.0001
@<TRIPOS>BOND
     1   121   122    1
     2   138   136   ar
     3   138   139   ar
     4   136   134   ar
     5   131   130    1
     6   131   132    2
     7   134   133    1
     8   134   135   ar
     9   139   137   ar
    10   133   130    1
    11   122   123    1
    12   122   125    1
    13   100    99    2
    14   129   130    1
    15   129   123   am
    16   123   124    2
    17   125   126    1
    18   135   137   ar
    19    99    98    1
    20   126   127    1
    21   140   141    1
    22    98   101    1
    23    98    97    1
    24   103   105   ar
    25   103   102   ar
    26   119   117    1
    27   109   110    2
    28   109   108    1
    29   117   114    1
    30   117   118    1
    31   120   118    1
    32   115   116    2
    33   115   114    1
    34   101   102    1
    35   107   108    1
    36   105   106   ar
    37   128   127    1
    38   102   104   ar
    39   142   141    1
    40   142   143    2
    41   111   108    1
    42   111   112    1
    43   114   113    1
    44   141   144    1
    45   106   104   ar
    46   144   146    1
    47   144   145    1
    48   147   148    1
    49   149   148    1
    50   149   150    2
    51   148   151    1
    52   151   153    1
    53   151   152    1
    54    92    91    2
    55    50    49    1
    56    49    48    1
    57   152   154    1
    58    91    90    1
    59    65    64    1
    60    96    94   am
    61    39    40    1
    62    39    38    1
    63    48    47    1
    64    66    64    1
    65    90    93    1
    66    90    89    1
    67    41    40   ar
    68    40    42   ar
    69    17    18   ar
    70    17    15   ar
    71    18    16   ar
    72    93    94    1
    73    64    63    1
    74    38    35    1
    75    94    95    2
    76    37    36    2
    77    35    36    1
    78    35    34    1
    79    47    44    1
    80     7     6    1
    81    15    14   ar
    82    16    14   ar
    83    80    79    1
    84    63    60    1
    85    14    13    1
    86    72    71    1
    87    44    45    1
    88    44    43    1
    89     6     5    1
    90     6     8    1
    91    46    45    2
    92    81    79    1
    93    58    56    1
    94    79    78    1
    95     5     2    1
    96    60    59    1
    97    60    61    1
    98    73    71    1
    99    71    68    1
   100    32    31    2
   101    13    10    1
   102    57    56    1
   103    33    30    1
   104    62    61    2
   105    59    53   am
   106    85    84    2
   107    56    55    1
   108    31    30    1
   109    30    29    1
   110    78    75    1
   111     9    10    1
   112     9     3   am
   113    10    11    1
   114    55    52    1
   115     2     1    1
   116     2     3    1
   117     3     4    2
   118    69    68    1
   119    69    70    2
   120    68    67    1
   121    53    54    2
   122    53    52    1
   123    84    83    1
   124    26    28   ar
   125    26    24   ar
   126    52    51    1
   127    88    86    1
   128    75    76    1
   129    75    74    1
   130    28    27   ar
   131    11    12    2
   132    24    23    1
   133    24    25   ar
   134    23    20    1
   135    83    86    1
   136    83    82    1
   137    77    76    2
   138    27    25   ar
   139    86    87    1
   140    21    22    2
   141    21    20    1
   142    20    19    1
