@<TRIPOS>MOLECULE
tmp/2uxwA00.pdb
 209 201 0 0 0
SMALL
GASTEIGER

@<TRIPOS>ATOM
      1  N         11.8170   36.1710   19.2290 N.3   112  ALA112     -0.1245
      2  CA        10.9070   36.5600   18.1580 C.3   112  ALA112      0.1562
      3  C         11.6930   37.2310   17.0250 C.2   112  ALA112      0.2260
      4  O         11.3950   37.0400   15.8380 O.2   112  ALA112     -0.2867
      5  CB         9.8390   37.4910   18.7010 C.3   112  ALA112      0.0290
      6  N         12.9090   33.1500   15.1350 N.3   116  ILE116     -0.1245
      7  CA        11.8700   32.9760   14.1250 C.3   116  ILE116      0.1561
      8  C         11.6500   34.1840   13.2040 C.2   116  ILE116      0.2260
      9  O         11.2570   34.0180   12.0540 O.2   116  ILE116     -0.2867
     10  CB        10.5220   32.5600   14.7520 C.3   116  ILE116      0.0252
     11  CG1        9.9900   33.6160   15.7250 C.3   116  ILE116      0.0019
     12  CG2       10.6660   31.2340   15.4360 C.3   116  ILE116      0.0019
     13  CD1        8.5200   33.3610   16.1730 C.3   116  ILE116      0.0001
     14  N          7.7860   37.5150   13.1340 N.3   146  PHE146     -0.1241
     15  CA         7.2410   36.3600   12.4030 C.3   146  PHE146      0.1605
     16  C          5.7260   36.4790   12.3960 C.2   146  PHE146      0.2264
     17  O          5.0810   36.4430   13.4540 O.2   146  PHE146     -0.2867
     18  CB         7.6760   35.1110   13.1520 C.3   146  PHE146      0.0534
     19  CG         7.2120   33.7990   12.5730 C.ar  146  PHE146     -0.0203
     20  CD1        7.9890   33.1250   11.6420 C.ar  146  PHE146     -0.0042
     21  CD2        6.0720   33.1790   13.0480 C.ar  146  PHE146     -0.0042
     22  CE1        7.5800   31.8670   11.1690 C.ar  146  PHE146     -0.0003
     23  CE2        5.6760   31.9520   12.5670 C.ar  146  PHE146     -0.0003
     24  CZ         6.4280   31.3010   11.6330 C.ar  146  PHE146     -0.0000
     25  N          2.4050   34.9900   11.2420 N.3   148  LEU148     -0.1231
     26  CA         1.6440   33.8280   10.7750 C.3   148  LEU148      0.1693
     27  C          0.2090   33.9060   11.3030 C.2   148  LEU148      0.2593
     28  O         -0.7490   33.9240   10.5160 O.2   148  LEU148     -0.2718
     29  CB         2.3330   32.5370   11.2060 C.3   148  LEU148      0.0284
     30  CG         1.6540   31.2350   10.7830 C.3   148  LEU148      0.0019
     31  CD1        1.4270   31.1520    9.2910 C.3   148  LEU148      0.0001
     32  CD2        2.4810   30.0650   11.3040 C.3   148  LEU148      0.0001
     33  N          0.0600   33.9650   12.6270 N.am  149  THR149     -0.1939
     34  CA        -1.2550   33.8980   13.3050 C.3   149  THR149      0.2028
     35  C         -2.1950   35.0010   12.8660 C.2   149  THR149      0.2642
     36  O         -1.7940   36.1450   12.7010 O.2   149  THR149     -0.2714
     37  CB        -1.0550   33.9660   14.8180 C.3   149  THR149      0.1808
     38  OG1       -0.1600   32.9070   15.1940 O.3   149  THR149     -0.2208
     39  CG2       -2.3920   33.8110   15.5830 C.3   149  THR149      0.0379
     40  N         -3.4650   34.6280   12.7090 N.am  150  GLU150     -0.1963
     41  CA        -4.5510   35.5500   12.3980 C.3   150  GLU150      0.1718
     42  C         -5.7240   35.3080   13.3380 C.2   150  GLU150      0.2458
     43  O         -5.7790   34.2780   14.0180 O.2   150  GLU150     -0.2730
     44  CB        -5.0240   35.3200   10.9650 C.3   150  GLU150      0.0428
     45  CG        -3.9260   35.4650    9.9400 C.3   150  GLU150      0.1163
     46  CD        -4.3910   35.1930    8.5320 C.2   150  GLU150      0.3649
     47  OE1       -5.5470   34.7480    8.3500 O.co2 150  GLU150     -0.2457
     48  OE2       -3.5800   35.4110    7.6050 O.co2 150  GLU150     -0.2457
     49  N         -6.6760   36.2440   13.3910 N.am  151  PRO151     -0.2716
     50  CA        -7.8480   36.0190   14.2390 C.3   151  PRO151      0.1536
     51  C         -8.5020   34.6530   14.0500 C.2   151  PRO151      0.2599
     52  O         -8.9030   34.0240   15.0350 O.2   151  PRO151     -0.2715
     53  CB        -8.7850   37.1650   13.8550 C.3   151  PRO151      0.0310
     54  CG        -7.8190   38.2670   13.4930 C.3   151  PRO151      0.0237
     55  CD        -6.7080   37.5680   12.7610 C.3   151  PRO151      0.0939
     56  N         -8.5440   34.1540   12.8300 N.am  152  SER152     -0.1936
     57  CA        -9.2140   32.8820   12.5440 C.3   152  SER152      0.2055
     58  C         -8.3200   31.6710   12.6200 C.2   152  SER152      0.2644
     59  O         -8.8280   30.5420   12.6080 O.2   152  SER152     -0.2714
     60  CB        -9.7500   32.9150   11.1190 C.3   152  SER152      0.2130
     61  OG        -8.6740   32.9750   10.1670 O.3   152  SER152     -0.2179
     62  N         -7.0000   31.8760   12.6630 N.am  153  SER153     -0.1935
     63  CA        -6.0640   30.7970   12.3830 C.3   153  SER153      0.2055
     64  C         -4.8880   30.8720   13.3180 C.2   153  SER153      0.2644
     65  O         -4.1110   31.8350   13.2740 O.2   153  SER153     -0.2714
     66  CB        -5.5410   30.9110   10.9650 C.3   153  SER153      0.2130
     67  OG        -6.6310   30.9690   10.0530 O.3   153  SER153     -0.2179
     68  N         -4.7240   29.8570   14.1520 N.am  154  GLY154     -0.1939
     69  CA        -3.6090   29.7730   15.0730 C.3   154  GLY154      0.2014
     70  C         -2.8930   28.4590   14.8840 C.2   154  GLY154      0.2639
     71  O         -1.8870   28.3690   14.1670 O.2   154  GLY154     -0.2714
     72  N         -3.4500   27.4130   15.4540 N.am  155  SER155     -0.1949
     73  CA        -2.8870   26.0810   15.2730 C.3   155  SER155      0.1924
     74  C         -2.9500   25.6120   13.8250 C.2   155  SER155      0.2314
     75  O         -2.0580   24.9040   13.3590 O.2   155  SER155     -0.2863
     76  CB        -3.6150   25.0850   16.1640 C.3   155  SER155      0.2116
     77  OG        -3.4090   25.4400   17.5310 O.3   155  SER155     -0.2180
     78  N         -1.4240   38.9360   17.5590 N.3   181  TRP181     -0.1227
     79  CA        -0.5190   38.5230   18.6470 C.3   181  TRP181      0.1737
     80  C          0.8980   38.3490   18.1460 C.2   181  TRP181      0.2595
     81  O          1.6050   37.4170   18.5090 O.2   181  TRP181     -0.2718
     82  CB        -1.0040   37.2600   19.3680 C.3   181  TRP181      0.0564
     83  CG        -2.3040   37.4310   20.0610 C.ar  181  TRP181      0.0003
     84  CD1       -2.7500   38.5390   20.7170 C.ar  181  TRP181      0.0946
     85  CD2       -3.3270   36.4470   20.1910 C.ar  181  TRP181      0.0152
     86  NE1       -4.0110   38.3120   21.2170 N.ar  181  TRP181     -0.2442
     87  CE2       -4.3930   37.0390   20.8990 C.ar  181  TRP181      0.0810
     88  CE3       -3.4700   35.1430   19.7280 C.ar  181  TRP181      0.0012
     89  CZ2       -5.5780   36.3670   21.1700 C.ar  181  TRP181      0.0191
     90  CZ3       -4.6650   34.4650   20.0050 C.ar  181  TRP181      0.0001
     91  CH2       -5.6970   35.0890   20.7160 C.ar  181  TRP181      0.0015
     92  N          1.3540   39.2830   17.3400 N.am  182  ILE182     -0.1966
     93  CA         2.6970   39.1880   16.7710 C.3   182  ILE182      0.1727
     94  C          3.7330   39.7910   17.7170 C.2   182  ILE182      0.2616
     95  O          3.6770   40.9750   18.0500 O.2   182  ILE182     -0.2715
     96  CB         2.7500   39.8950   15.3930 C.3   182  ILE182      0.0290
     97  CG1        1.6810   39.3160   14.4390 C.3   182  ILE182      0.0022
     98  CG2        4.1740   39.8360   14.7890 C.3   182  ILE182      0.0023
     99  CD1        1.6830   37.8000   14.2930 C.3   182  ILE182      0.0001
    100  N          4.6620   38.9660   18.1640 N.am  183  SER183     -0.1950
    101  CA         5.7420   39.4430   19.0210 C.3   183  SER183      0.1924
    102  C          6.6370   40.3850   18.2080 C.2   183  SER183      0.2314
    103  O          7.0640   40.0710   17.0820 O.2   183  SER183     -0.2863
    104  CB         6.5570   38.2730   19.5190 C.3   183  SER183      0.2116
    105  OG         5.7520   37.4160   20.3260 O.3   183  SER183     -0.2180
    106  N         -1.1400   41.4490   28.9740 N.3   231  LYS231     -0.1245
    107  CA        -1.1230   40.0200   29.1480 C.3   231  LYS231      0.1561
    108  C         -0.5860   39.6000   30.4970 C.2   231  LYS231      0.2260
    109  O         -0.1170   40.4200   31.2860 O.2   231  LYS231     -0.2867
    110  CB        -0.3420   39.3780   28.0220 C.3   231  LYS231      0.0271
    111  CG         0.9840   39.9410   27.7720 C.3   231  LYS231      0.0035
    112  CD         1.5650   39.4300   26.4110 C.3   231  LYS231      0.0206
    113  CE         3.0140   39.8370   26.2580 C.3   231  LYS231      0.1093
    114  NZ         3.1340   41.2580   25.9260 N.3   231  LYS231     -0.1314
    115  N          5.3960   37.7560   30.4950 N.3   234  ILE234     -0.1245
    116  CA         6.3220   38.3150   29.4980 C.3   234  ILE234      0.1561
    117  C          5.8850   39.7190   29.0900 C.2   234  ILE234      0.2260
    118  O          5.8750   40.0860   27.9180 O.2   234  ILE234     -0.2867
    119  CB         6.6140   37.4000   28.3100 C.3   234  ILE234      0.0252
    120  CG1        5.3460   37.0020   27.5630 C.3   234  ILE234      0.0019
    121  CG2        7.4280   36.1580   28.7530 C.3   234  ILE234      0.0019
    122  CD1        5.5970   36.3490   26.1800 C.3   234  ILE234      0.0001
    123  N          3.6680   42.7490   21.9420 N.3   239  THR239     -0.1218
    124  CA         2.7540   41.8530   21.2330 C.3   239  THR239      0.1862
    125  C          1.6770   42.7290   20.6190 C.2   239  THR239      0.2287
    126  O          0.9850   43.4350   21.3500 O.2   239  THR239     -0.2866
    127  CB         2.0930   40.8810   22.1870 C.3   239  THR239      0.1770
    128  OG1        3.0950   40.3080   23.0400 O.3   239  THR239     -0.2211
    129  CG2        1.3510   39.7860   21.4360 C.3   239  THR239      0.0375
    130  N          2.6820   31.0060   28.9540 N.3   389  ILE389     -0.1245
    131  CA         2.5190   31.0780   27.5060 C.3   389  ILE389      0.1561
    132  C          3.3860   30.0630   26.7570 C.2   389  ILE389      0.2260
    133  O          3.1000   29.7160   25.6260 O.2   389  ILE389     -0.2867
    134  CB         2.8000   32.5460   27.0030 C.3   389  ILE389      0.0252
    135  CG1        2.4000   32.7120   25.5190 C.3   389  ILE389      0.0019
    136  CG2        4.2530   32.9640   27.2840 C.3   389  ILE389      0.0019
    137  CD1        0.9180   32.4410   25.1940 C.3   389  ILE389      0.0001
    138  N          1.8070   27.2240   25.0650 N.3   392  ILE392     -0.1231
    139  CA         0.8000   27.5940   24.0990 C.3   392  ILE392      0.1692
    140  C          1.3690   28.0850   22.7790 C.2   392  ILE392      0.2592
    141  O          0.9690   27.6120   21.7140 O.2   392  ILE392     -0.2718
    142  CB        -0.1340   28.6670   24.6770 C.3   392  ILE392      0.0266
    143  CG1       -0.9590   28.0620   25.7970 C.3   392  ILE392      0.0019
    144  CG2       -1.0360   29.2330   23.5640 C.3   392  ILE392      0.0020
    145  CD1       -1.7570   29.0950   26.6380 C.3   392  ILE392      0.0001
    146  N          2.3360   28.9910   22.8230 N.am  393  PHE393     -0.1962
    147  CA         2.9100   29.4970   21.5740 C.3   393  PHE393      0.1771
    148  C          4.0400   28.6140   21.0620 C.2   393  PHE393      0.2619
    149  O          4.4590   27.6830   21.7420 O.2   393  PHE393     -0.2715
    150  CB         3.2120   31.0140   21.6030 C.3   393  PHE393      0.0574
    151  CG         4.3400   31.4830   22.5010 C.ar  393  PHE393     -0.0200
    152  CD1        4.4580   32.8560   22.6930 C.ar  393  PHE393     -0.0042
    153  CD2        5.2420   30.6500   23.1370 C.ar  393  PHE393     -0.0042
    154  CE1        5.4350   33.3800   23.4950 C.ar  393  PHE393     -0.0003
    155  CE2        6.2480   31.1870   23.9580 C.ar  393  PHE393     -0.0003
    156  CZ         6.3310   32.5490   24.1240 C.ar  393  PHE393     -0.0000
    157  N          4.4850   28.8670   19.8340 N.am  394  GLU394     -0.1963
    158  CA         5.4620   27.9930   19.1550 C.3   394  GLU394      0.1733
    159  C          4.9060   26.5640   19.0020 C.2   394  GLU394      0.2617
    160  O          5.6590   25.5790   19.0530 O.2   394  GLU394     -0.2715
    161  CB         6.7990   27.9700   19.8880 C.3   394  GLU394      0.0429
    162  CG         7.8820   28.8720   19.2920 C.3   394  GLU394      0.1163
    163  CD         8.7780   28.1470   18.2900 C.2   394  GLU394      0.3649
    164  OE1        9.8550   28.6850   17.9580 O.co2 394  GLU394     -0.2457
    165  OE2        8.4140   27.0410   17.8340 O.co2 394  GLU394     -0.2457
    166  N          3.5910   26.4740   18.8420 N.am  395  GLY395     -0.1940
    167  CA         2.8910   25.1910   18.7840 C.3   395  GLY395      0.2014
    168  C          2.2900   24.8430   20.1370 C.2   395  GLY395      0.2639
    169  O          3.0090   24.7110   21.1260 O.2   395  GLY395     -0.2714
    170  N          0.9680   24.7420   20.2310 N.am  396  THR396     -0.1950
    171  CA         0.4090   24.3950   21.5080 C.3   396  THR396      0.1897
    172  C          0.8830   23.0030   21.8770 C.2   396  THR396      0.2313
    173  O          1.0830   22.1620   21.0070 O.2   396  THR396     -0.2863
    174  CB        -1.1080   24.4240   21.6050 C.3   396  THR396      0.1794
    175  OG1       -1.6610   23.3060   20.8890 O.3   396  THR396     -0.2208
    176  CG2       -1.6950   25.7470   21.0890 C.3   396  THR396      0.0378
    177  N         -0.6930   20.6300   23.0180 N.3   398  ASP398     -0.1225
    178  CA        -1.6890   19.6430   22.6040 C.3   398  ASP398      0.1805
    179  C         -1.4800   19.2860   21.1310 C.2   398  ASP398      0.2597
    180  O         -1.3980   18.0920   20.7750 O.2   398  ASP398     -0.2718
    181  CB        -3.0720   20.2500   22.8460 C.3   398  ASP398      0.1424
    182  CG        -3.0950   21.1460   24.1070 C.2   398  ASP398      0.3668
    183  OD1       -3.0990   20.5360   25.2240 O.co2 398  ASP398     -0.2456
    184  OD2       -3.0250   22.4400   23.9850 O.co2 398  ASP398     -0.2456
    185  N         -1.3280   20.2810   20.2680 N.am  399  ILE399     -0.1980
    186  CA        -1.0640   20.0160   18.8700 C.3   399  ILE399      0.1595
    187  C          0.2870   19.3690   18.6730 C.2   399  ILE399      0.2287
    188  O          0.4640   18.4940   17.7950 O.2   399  ILE399     -0.2864
    189  CB        -1.1620   21.2910   18.0350 C.3   399  ILE399      0.0276
    190  CG1       -2.6170   21.7920   18.0510 C.3   399  ILE399      0.0022
    191  CG2       -0.6170   21.0650   16.6150 C.3   399  ILE399      0.0022
    192  CD1       -3.5640   20.9500   17.2470 C.3   399  ILE399      0.0001
    193  N         -0.0410   15.6610   19.3070 N.3   402  LEU402     -0.1245
    194  CA        -0.6350   14.9860   18.1380 C.3   402  LEU402      0.1561
    195  C          0.4000   14.8500   17.0260 C.2   402  LEU402      0.2260
    196  O          0.4630   13.8050   16.3710 O.2   402  LEU402     -0.2867
    197  CB        -1.8830   15.7390   17.6580 C.3   402  LEU402      0.0270
    198  CG        -3.0360   15.8360   18.6550 C.3   402  LEU402      0.0019
    199  CD1       -4.1640   16.6880   18.0750 C.3   402  LEU402      0.0001
    200  CD2       -3.5480   14.4380   19.0520 C.3   402  LEU402      0.0001
    201  N         -7.8060   10.7700   19.0930 N.3   474  GLN474     -0.1245
    202  CA        -6.9900   11.7150   19.8170 C.3   474  GLN474      0.1566
    203  C         -6.6800   11.2930   21.2470 C.2   474  GLN474      0.2260
    204  O         -5.5950   11.6030   21.7810 O.2   474  GLN474     -0.2867
    205  CB        -7.6050   13.1140   19.8400 C.3   474  GLN474      0.0367
    206  CG        -7.6340   13.7710   18.4610 C.3   474  GLN474      0.0905
    207  CD        -7.8520   15.2690   18.5400 C.2   474  GLN474      0.2608
    208  OE1       -8.1990   15.8080   19.5950 O.2   474  GLN474     -0.2717
    209  NE2       -7.6190   15.9690   17.4350 N.am  474  GLN474     -0.0878
@<TRIPOS>BOND
     1    48    46   ar
     2    47    46   ar
     3    46    45    1
     4    31    30    1
     5    45    44    1
     6    67    66    1
     7    61    60    1
     8    28    27    2
     9    26    29    1
    10    26    25    1
    11    26    27    1
    12    30    29    1
    13    30    32    1
    14    66    63    1
    15    44    41    1
    16    60    57    1
    17    22    24   ar
    18    22    20   ar
    19    27    33   am
    20    24    23   ar
    21    20    19   ar
    22     9     8    2
    23    63    62    1
    24    63    64    1
    25    16    15    1
    26    16    17    2
    27    41    40    1
    28    41    42    1
    29    15    14    1
    30    15    18    1
    31    57    58    1
    32    57    56    1
    33    23    21   ar
    34    19    21   ar
    35    19    18    1
    36    59    58    2
    37    58    62   am
    38    33    34    1
    39    36    35    2
    40    40    35   am
    41    55    49    1
    42    55    54    1
    43    56    51   am
    44    35    34    1
    45     8     7    1
    46    65    64    2
    47    34    37    1
    48    64    68   am
    49    42    49   am
    50    42    43    2
    51    75    74    2
    52    49    50    1
    53    54    53    1
    54    74    73    1
    55    53    50    1
    56    51    50    1
    57    51    52    2
    58     7    10    1
    59     7     6    1
    60    68    69    1
    61    71    70    2
    62    99    97    1
    63    97    96    1
    64    10    12    1
    65    10    11    1
    66    98    96    1
    67    37    38    1
    68    37    39    1
    69    70    69    1
    70    70    72   am
    71    73    72    1
    72    73    76    1
    73    96    93    1
    74    11    13    1
    75     4     3    2
    76    76    77    1
    77   196   195    2
    78   191   189    1
    79    93    92    1
    80    93    94    1
    81     3     2    1
    82   195   194    1
    83   103   102    2
    84   192   190    1
    85    92    80   am
    86   209   207   am
    87    78    79    1
    88   197   194    1
    89   197   198    1
    90    94    95    2
    91    94   100   am
    92   188   187    2
    93   165   163   ar
    94   164   163   ar
    95   189   190    1
    96   189   186    1
    97   199   198    1
    98   194   193    1
    99    80    81    2
   100    80    79    1
   101     2     5    1
   102     2     1    1
   103   100   101    1
   104   102   101    1
   105   163   162    1
   106   206   207    1
   107   206   205    1
   108   207   208    2
   109    79    82    1
   110   198   200    1
   111   187   186    1
   112   167   166    1
   113   167   168    1
   114   166   159   am
   115   186   185    1
   116   159   160    2
   117   159   158    1
   118   101   104    1
   119   201   202    1
   120   158   157    1
   121   158   161    1
   122   162   161    1
   123    82    83    1
   124   104   105    1
   125    88    90   ar
   126    88    85   ar
   127   202   205    1
   128   202   203    1
   129   157   148   am
   130    90    91   ar
   131    83    85   ar
   132    83    84   ar
   133   168   170   am
   134   168   169    2
   135    85    87   ar
   136   170   171    1
   137   185   179   am
   138   125   124    1
   139   125   126    2
   140    91    89   ar
   141    84    86   ar
   142   180   179    2
   143   175   174    1
   144    87    89   ar
   145    87    86   ar
   146   173   172    2
   147   148   147    1
   148   148   149    2
   149   176   174    1
   150   179   178    1
   151   124   123    1
   152   124   127    1
   153   203   204    2
   154   129   127    1
   155   171   174    1
   156   171   172    1
   157   147   150    1
   158   147   146    1
   159   150   151    1
   160   141   140    2
   161   127   128    1
   162   151   152   ar
   163   151   153   ar
   164   178   181    1
   165   178   177    1
   166   152   154   ar
   167   140   146   am
   168   140   139    1
   169   181   182    1
   170   153   155   ar
   171   154   156   ar
   172   144   142    1
   173   155   156   ar
   174   184   182   ar
   175   139   142    1
   176   139   138    1
   177   182   183   ar
   178   142   143    1
   179   137   135    1
   180   135   134    1
   181   133   132    2
   182   143   145    1
   183   114   113    1
   184   122   120    1
   185   113   112    1
   186   112   111    1
   187   132   131    1
   188   134   136    1
   189   134   131    1
   190   131   130    1
   191   120   119    1
   192   111   110    1
   193   118   117    2
   194   110   107    1
   195   119   121    1
   196   119   116    1
   197   106   107    1
   198   117   116    1
   199   107   108    1
   200   116   115    1
   201   108   109    2
