@<TRIPOS>MOLECULE
tmp/2uxzA00.pdb
 131 124 0 0 0
SMALL
GASTEIGER

@<TRIPOS>ATOM
      1  N         26.5250   24.1330    5.7140 N.3     8  ARG8       -0.1245
      2  CA        25.2850   24.7610    6.1620 C.3     8  ARG8        0.1563
      3  C         25.6280   26.1620    6.6530 C.2     8  ARG8        0.2260
      4  O         26.6280   26.3540    7.3430 O.2     8  ARG8       -0.2867
      5  CB        24.6540   23.9690    7.3090 C.3     8  ARG8        0.0307
      6  CG        23.9580   22.6890    6.8880 C.3     8  ARG8        0.0489
      7  CD        23.1690   22.1030    8.0480 C.3     8  ARG8        0.2205
      8  NE        22.3210   20.9970    7.6140 N.pl3   8  ARG8       -0.0865
      9  CZ        21.4860   20.3370    8.4080 C.cat   8  ARG8        0.5346
     10  NH1       21.3780   20.6650    9.6900 N.pl3   8  ARG8        0.1354
     11  NH2       20.7510   19.3510    7.9150 N.pl3   8  ARG8        0.1354
     12  N         20.3920   28.4720   11.6250 N.3    23  LEU23      -0.1245
     13  CA        20.6070   28.2880   10.1980 C.3    23  LEU23       0.1561
     14  C         19.8800   29.3580    9.3820 C.2    23  LEU23       0.2260
     15  O         18.6880   29.5790    9.5710 O.2    23  LEU23      -0.2867
     16  CB        20.0930   26.9020    9.8150 C.3    23  LEU23       0.0270
     17  CG        20.3460   26.3840    8.4110 C.3    23  LEU23       0.0019
     18  CD1       21.8440   26.2040    8.1940 C.3    23  LEU23       0.0001
     19  CD2       19.6140   25.0640    8.2510 C.3    23  LEU23       0.0001
     20  N         17.9290   30.2670    6.5900 N.3    25  ASP25      -0.1239
     21  CA        17.1130   29.4660    5.6780 C.3    25  ASP25       0.1674
     22  C         16.2100   30.2730    4.7490 C.2    25  ASP25       0.2266
     23  O         15.1310   30.6990    5.1560 O.2    25  ASP25      -0.2867
     24  CB        16.2440   28.5160    6.5110 C.3    25  ASP25       0.1410
     25  CG        15.7250   27.3410    5.7120 C.2    25  ASP25       0.3668
     26  OD1       15.5870   27.4650    4.4780 O.co2  25  ASP25      -0.2456
     27  OD2       15.4560   26.2870    6.3330 O.co2  25  ASP25      -0.2456
     28  N         14.4850   29.1970    2.4370 N.3    27  GLY27      -0.1210
     29  CA        13.2900   28.4320    2.1140 C.3    27  GLY27       0.1956
     30  C         12.2880   28.4030    3.2580 C.2    27  GLY27       0.2612
     31  O         11.2480   27.7410    3.1710 O.2    27  GLY27      -0.2717
     32  N         12.6020   29.1250    4.3330 N.am   28  ALA28      -0.1965
     33  CA        11.7440   29.1930    5.5130 C.3    28  ALA28       0.1728
     34  C         10.9690   30.5110    5.5720 C.2    28  ALA28       0.2616
     35  O         11.5650   31.5910    5.5570 O.2    28  ALA28      -0.2715
     36  CB        12.5880   29.0400    6.7760 C.3    28  ALA28       0.0334
     37  N          9.6460   30.4170    5.6440 N.am   29  ASP29      -0.1957
     38  CA         8.7870   31.6040    5.7210 C.3    29  ASP29       0.1840
     39  C          8.9750   32.2960    7.0690 C.2    29  ASP29       0.2622
     40  O          9.0350   33.5250    7.1530 O.2    29  ASP29      -0.2715
     41  CB         7.3020   31.2180    5.6170 C.3    29  ASP29       0.1450
     42  CG         6.8160   31.0240    4.1830 C.2    29  ASP29       0.3671
     43  OD1        7.6270   31.0160    3.2300 O.co2  29  ASP29      -0.2456
     44  OD2        5.5850   30.8700    4.0210 O.co2  29  ASP29      -0.2456
     45  N          9.0470   31.4810    8.1190 N.am   30  ASP30      -0.1971
     46  CA         9.1720   31.9650    9.4860 C.3    30  ASP30       0.1709
     47  C         10.4690   31.5520   10.1500 C.2    30  ASP30       0.2293
     48  O         11.2570   30.7850    9.6090 O.2    30  ASP30      -0.2864
     49  CB         8.0270   31.4160   10.3340 C.3    30  ASP30       0.1436
     50  CG         6.7080   31.4280    9.6010 C.2    30  ASP30       0.3671
     51  OD1        6.3180   32.5080    9.1200 O.co2  30  ASP30      -0.2456
     52  OD2        6.0680   30.3590    9.5080 O.co2  30  ASP30      -0.2456
     53  N         11.9070   29.7490   13.5150 N.3    32  VAL32      -0.1245
     54  CA        11.5000   28.8560   14.5920 C.3    32  VAL32       0.1561
     55  C         12.7300   28.3330   15.3150 C.2    32  VAL32       0.2260
     56  O         13.7100   27.9020   14.6940 O.2    32  VAL32      -0.2867
     57  CB        10.6580   27.6560   14.0720 C.3    32  VAL32       0.0252
     58  CG1       11.4460   26.8470   13.0480 C.3    32  VAL32       0.0019
     59  CG2       10.2300   26.7690   15.2530 C.3    32  VAL32       0.0019
     60  N          3.0360   24.7560   11.8360 N.3    47  ILE47      -0.1231
     61  CA         3.8730   25.0320   10.6760 C.3    47  ILE47       0.1692
     62  C          4.2740   23.7200   10.0040 C.2    47  ILE47       0.2593
     63  O          4.5010   22.7150   10.6710 O.2    47  ILE47      -0.2718
     64  CB         5.1380   25.8460   11.0430 C.3    47  ILE47       0.0266
     65  CG1        5.9690   25.1040   12.0870 C.3    47  ILE47       0.0019
     66  CG2        4.7290   27.2330   11.5470 C.3    47  ILE47       0.0020
     67  CD1        7.2840   25.7920   12.4050 C.3    47  ILE47       0.0001
     68  N          4.3350   23.7360    8.6790 N.am   48  GLY48      -0.1942
     69  CA         4.6760   22.5290    7.9520 C.3    48  GLY48       0.2014
     70  C          6.0400   22.5520    7.2970 C.2    48  GLY48       0.2639
     71  O          6.5390   23.6060    6.9110 O.2    48  GLY48      -0.2714
     72  N          6.6420   21.3720    7.1850 N.am   49  GLY49      -0.1939
     73  CA         7.9460   21.2340    6.5640 C.3    49  GLY49       0.2014
     74  C          7.9930   19.8840    5.8760 C.2    49  GLY49       0.2638
     75  O          6.9560   19.2340    5.7180 O.2    49  GLY49      -0.2714
     76  N          9.1680   19.4490    5.4360 N.am   50  ILE50      -0.1977
     77  CA         9.2160   18.1420    4.8090 C.3    50  ILE50       0.1596
     78  C          9.0990   17.1870    5.9880 C.2    50  ILE50       0.2287
     79  O          9.9110   17.2140    6.9120 O.2    50  ILE50      -0.2864
     80  CB        10.5360   17.8900    4.0420 C.3    50  ILE50       0.0276
     81  CG1       11.7160   17.8180    5.0050 C.3    50  ILE50       0.0022
     82  CG2       10.7540   18.9920    3.0220 C.3    50  ILE50       0.0022
     83  CD1       12.9610   17.2080    4.3900 C.3    50  ILE50       0.0001
     84  N          3.6070   18.5410    9.8060 N.3    53  PHE53      -0.1227
     85  CA         3.4530   19.7370   10.6310 C.3    53  PHE53       0.1736
     86  C          3.7970   19.5270   12.0960 C.2    53  PHE53       0.2595
     87  O          3.7370   18.4030   12.6090 O.2    53  PHE53      -0.2718
     88  CB         2.0120   20.2520   10.5520 C.3    53  PHE53       0.0547
     89  CG         1.6440   20.8630    9.2290 C.ar   53  PHE53      -0.0202
     90  CD1        1.4790   20.0670    8.0980 C.ar   53  PHE53      -0.0042
     91  CD2        1.4410   22.2370    9.1200 C.ar   53  PHE53      -0.0042
     92  CE1        1.1130   20.6310    6.8740 C.ar   53  PHE53      -0.0003
     93  CE2        1.0760   22.8160    7.9040 C.ar   53  PHE53      -0.0003
     94  CZ         0.9100   22.0110    6.7760 C.ar   53  PHE53      -0.0000
     95  N          4.1640   20.6210   12.7600 N.am   54  ILE54      -0.1980
     96  CA         4.4690   20.6090   14.1900 C.3    54  ILE54       0.1595
     97  C          3.7920   21.8230   14.8050 C.2    54  ILE54       0.2287
     98  O          3.5570   22.8210   14.1260 O.2    54  ILE54      -0.2864
     99  CB         5.9860   20.7070   14.5020 C.3    54  ILE54       0.0276
    100  CG1        6.5940   21.9180   13.7880 C.3    54  ILE54       0.0022
    101  CG2        6.6780   19.3970   14.1340 C.3    54  ILE54       0.0022
    102  CD1        7.9570   22.3330   14.3370 C.3    54  ILE54       0.0001
    103  N         11.4560   21.8960   16.8210 N.3    80  THR80      -0.1204
    104  CA        12.1830   21.9200   15.5620 C.3    80  THR80       0.1979
    105  C         13.5350   21.2370   15.7930 C.2    80  THR80       0.2460
    106  O         14.1480   21.3900   16.8570 O.2    80  THR80      -0.2732
    107  CB        12.3920   23.3760   15.0620 C.3    80  THR80       0.1783
    108  OG1       13.1410   23.3580   13.8420 O.3    80  THR80      -0.2211
    109  CG2       13.1300   24.2110   16.1060 C.3    80  THR80       0.0376
    110  N         14.0090   20.4560   14.8120 N.am   81  PRO81      -0.2717
    111  CA        15.2930   19.7550   14.9330 C.3    81  PRO81       0.1535
    112  C         16.5130   20.6790   14.9820 C.2    81  PRO81       0.2598
    113  O         17.5420   20.3310   15.5590 O.2    81  PRO81      -0.2715
    114  CB        15.2980   18.8340   13.7130 C.3    81  PRO81       0.0310
    115  CG        14.5080   19.6110   12.7110 C.3    81  PRO81       0.0237
    116  CD        13.3560   20.1360   13.5300 C.3    81  PRO81       0.0939
    117  N         16.3970   21.8550   14.3750 N.am   82  VAL82      -0.1978
    118  CA        17.4880   22.8250   14.3640 C.3    82  VAL82       0.1596
    119  C         16.8930   24.2270   14.4160 C.2    82  VAL82       0.2287
    120  O         15.7450   24.4250   14.0220 O.2    82  VAL82      -0.2864
    121  CB        18.3450   22.7110   13.0780 C.3    82  VAL82       0.0276
    122  CG1       18.8570   21.2870   12.9130 C.3    82  VAL82       0.0022
    123  CG2       17.5330   23.1330   11.8710 C.3    82  VAL82       0.0022
    124  N         16.1050   27.7420   13.1450 N.3    84  ILE84      -0.1245
    125  CA        15.9770   28.2910   11.7960 C.3    84  ILE84       0.1561
    126  C         15.6280   29.7830   11.7280 C.2    84  ILE84       0.2260
    127  O         14.6470   30.2340   12.3240 O.2    84  ILE84      -0.2867
    128  CB        14.8880   27.5130   11.0200 C.3    84  ILE84       0.0252
    129  CG1       15.2730   26.0330   10.9120 C.3    84  ILE84       0.0019
    130  CG2       14.6590   28.1440    9.6430 C.3    84  ILE84       0.0019
    131  CD1       16.4830   25.7660   10.0360 C.3    84  ILE84       0.0001
@<TRIPOS>BOND
     1    29    28    1
     2    29    30    1
     3    82    80    1
     4    31    30    2
     5    43    42   ar
     6    30    32   am
     7    44    42   ar
     8    80    77    1
     9    80    81    1
    10    42    41    1
    11    32    33    1
    12    83    81    1
    13    26    25   ar
    14    22    23    2
    15    22    21    1
    16    77    76    1
    17    77    78    1
    18    76    74   am
    19    33    34    1
    20    33    36    1
    21    35    34    2
    22    34    37   am
    23    41    38    1
    24    37    38    1
    25    21    24    1
    26    21    20    1
    27    25    27   ar
    28    25    24    1
    29     1     2    1
    30    75    74    2
    31    38    39    1
    32    74    73    1
    33    78    79    2
    34     2     3    1
    35     2     5    1
    36    73    72    1
    37     3     4    2
    38    94    92   ar
    39    94    93   ar
    40    92    90   ar
    41     6     5    1
    42     6     7    1
    43    71    70    2
    44    39    40    2
    45    39    45   am
    46    72    70   am
    47    70    69    1
    48     8     7    1
    49     8     9    2
    50    93    91   ar
    51    11     9    1
    52    69    68    1
    53    90    89   ar
    54    45    46    1
    55    18    17    1
    56    19    17    1
    57     9    10    1
    58    17    16    1
    59    68    62   am
    60    91    89   ar
    61    51    50   ar
    62    89    88    1
    63    14    15    2
    64    14    13    1
    65    46    47    1
    66    46    49    1
    67    52    50   ar
    68    50    49    1
    69    48    47    2
    70   130   128    1
    71    84    85    1
    72    16    13    1
    73    62    63    2
    74    62    61    1
    75   131   129    1
    76    13    12    1
    77    88    85    1
    78    85    86    1
    79    61    64    1
    80    61    60    1
    81   129   128    1
    82   128   125    1
    83    64    66    1
    84    64    65    1
    85   126   125    1
    86   126   127    2
    87   125   124    1
    88   123   121    1
    89    65    67    1
    90    86    87    2
    91    86    95   am
    92   115   116    1
    93   115   114    1
    94    95    96    1
    95   122   121    1
    96    58    57    1
    97   121   118    1
    98    53    54    1
    99   116   110    1
   100   114   111    1
   101   100   102    1
   102   100    99    1
   103   108   107    1
   104   120   119    2
   105    57    54    1
   106    57    59    1
   107    98    97    2
   108   101    99    1
   109    96    99    1
   110    96    97    1
   111   118   117    1
   112   118   119    1
   113   117   112   am
   114    54    55    1
   115    56    55    2
   116   110   111    1
   117   110   105   am
   118   111   112    1
   119   112   113    2
   120   107   104    1
   121   107   109    1
   122   104   105    1
   123   104   103    1
   124   105   106    2
