@<TRIPOS>MOLECULE
tmp/2uy3A00.pdb
 129 123 0 0 0
SMALL
GASTEIGER

@<TRIPOS>ATOM
      1  N         46.4630   23.1240   27.7020 N.3     7  TYR7       -0.1241
      2  CA        46.0100   21.7610   27.4550 C.3     7  TYR7        0.1605
      3  C         47.0490   21.0590   26.5940 C.2     7  TYR7        0.2264
      4  O         47.6050   21.6610   25.7000 O.2     7  TYR7       -0.2867
      5  CB        44.6280   21.7520   26.7690 C.3     7  TYR7        0.0534
      6  CG        43.5760   22.0930   27.7570 C.ar    7  TYR7       -0.0201
      7  CD1       43.2700   23.4330   28.0550 C.ar    7  TYR7       -0.0009
      8  CD2       42.8990   21.0740   28.4560 C.ar    7  TYR7       -0.0009
      9  CE1       42.3030   23.7490   29.0460 C.ar    7  TYR7        0.0417
     10  CE2       41.9470   21.3730   29.4430 C.ar    7  TYR7        0.0417
     11  CZ        41.6500   22.7140   29.7190 C.ar    7  TYR7        0.1957
     12  OH        40.7230   23.0020   30.6940 O.3     7  TYR7       -0.2866
     13  N         45.6510   16.3190   22.7400 N.3    10  GLN10      -0.1245
     14  CA        44.7680   16.1040   21.6090 C.3    10  GLN10       0.1566
     15  C         45.3200   16.5490   20.2830 C.2    10  GLN10       0.2260
     16  O         44.6230   16.5110   19.2780 O.2    10  GLN10      -0.2867
     17  CB        43.3950   16.7090   21.8840 C.3    10  GLN10       0.0367
     18  CG        42.7230   16.0020   23.0480 C.3    10  GLN10       0.0905
     19  CD        42.3930   14.5810   22.6560 C.2    10  GLN10       0.2608
     20  OE1       41.6750   14.3410   21.6830 O.2    10  GLN10      -0.2717
     21  NE2       42.9720   13.6320   23.3600 N.am   10  GLN10      -0.0878
     22  N         42.8810   13.4930   27.0220 N.3    35  PHE35      -0.1241
     23  CA        41.8930   13.4900   28.1030 C.3    35  PHE35       0.1605
     24  C         41.6910   12.0750   28.6760 C.2    35  PHE35       0.2264
     25  O         41.8720   11.0800   27.9680 O.2    35  PHE35      -0.2867
     26  CB        40.5050   13.8570   27.5530 C.3    35  PHE35       0.0534
     27  CG        40.3380   15.2950   27.1280 C.ar   35  PHE35      -0.0203
     28  CD1       40.2200   16.3170   28.0640 C.ar   35  PHE35      -0.0042
     29  CD2       40.2170   15.6140   25.7840 C.ar   35  PHE35      -0.0042
     30  CE1       40.0270   17.6570   27.6440 C.ar   35  PHE35      -0.0003
     31  CE2       40.0600   16.9390   25.3680 C.ar   35  PHE35      -0.0003
     32  CZ        39.9450   17.9440   26.2860 C.ar   35  PHE35      -0.0000
     33  N         35.0920   17.8110   24.7240 N.3    85  ALA85      -0.1231
     34  CA        34.1700   17.7410   23.6120 C.3    85  ALA85       0.1694
     35  C         34.2420   16.3290   23.1030 C.2    85  ALA85       0.2592
     36  O         35.2870   15.8020   22.9950 O.2    85  ALA85      -0.2718
     37  CB        34.5810   18.6910   22.5500 C.3    85  ALA85       0.0304
     38  N         33.1230   15.6950   22.8550 N.am   86  SER86      -0.1952
     39  CA        33.1600   14.3190   22.4210 C.3    86  SER86       0.1924
     40  C         33.8980   13.4560   23.4380 C.2    86  SER86       0.2314
     41  O         34.3300   13.9290   24.4270 O.2    86  SER86      -0.2863
     42  CB        33.8260   14.2480   21.0620 C.3    86  SER86       0.2116
     43  OG        35.2140   14.0700   21.1720 O.3    86  SER86      -0.2180
     44  N         36.7810   19.1020   32.3760 N.3   130  ASP130     -0.1239
     45  CA        36.4070   19.7150   31.1220 C.3   130  ASP130      0.1674
     46  C         35.1740   18.9910   30.6040 C.2   130  ASP130      0.2266
     47  O         35.1880   18.3600   29.5570 O.2   130  ASP130     -0.2867
     48  CB        37.5650   19.6360   30.1180 C.3   130  ASP130      0.1410
     49  CG        37.2760   20.4170   28.8480 C.2   130  ASP130      0.3668
     50  OD1       36.2800   21.1980   28.7990 O.co2 130  ASP130     -0.2456
     51  OD2       38.0200   20.1960   27.8810 O.co2 130  ASP130     -0.2456
     52  N         31.7650   18.6750   28.8450 N.3   132  GLU132     -0.1245
     53  CA        31.2030   19.4280   27.7220 C.3   132  GLU132      0.1567
     54  C         29.9290   18.7640   27.1830 C.2   132  GLU132      0.2260
     55  O         29.5230   18.9940   26.0320 O.2   132  GLU132     -0.2867
     56  CB        32.2560   19.6100   26.6220 C.3   132  GLU132      0.0388
     57  CG        33.5910   20.2150   27.1890 C.3   132  GLU132      0.1160
     58  CD        34.3400   21.1330   26.2330 C.2   132  GLU132      0.3649
     59  OE1       34.0820   21.0740   25.0150 O.co2 132  GLU132     -0.2457
     60  OE2       35.2260   21.8900   26.6910 O.co2 132  GLU132     -0.2457
     61  N         36.7300   23.5790   33.5330 N.3   162  ALA162     -0.1245
     62  CA        36.8620   24.2550   32.2330 C.3   162  ALA162      0.1562
     63  C         35.5140   24.7220   31.6550 C.2   162  ALA162      0.2260
     64  O         35.1300   24.2780   30.5660 O.2   162  ALA162     -0.2867
     65  CB        37.5900   23.3300   31.2120 C.3   162  ALA162      0.0290
     66  N         39.3310   27.5220   34.3940 N.3   185  PHE185     -0.1241
     67  CA        39.8630   27.8280   33.0840 C.3   185  PHE185      0.1605
     68  C         38.6650   28.0970   32.1940 C.2   185  PHE185      0.2264
     69  O         38.0880   27.1810   31.6070 O.2   185  PHE185     -0.2867
     70  CB        40.7150   26.6650   32.5510 C.3   185  PHE185      0.0534
     71  CG        41.8450   26.2300   33.5040 C.ar  185  PHE185     -0.0203
     72  CD1       42.8350   27.1310   33.8950 C.ar  185  PHE185     -0.0042
     73  CD2       41.9050   24.9180   34.0010 C.ar  185  PHE185     -0.0042
     74  CE1       43.8590   26.7420   34.7390 C.ar  185  PHE185     -0.0003
     75  CE2       42.9190   24.5330   34.8620 C.ar  185  PHE185     -0.0003
     76  CZ        43.9060   25.4350   35.2260 C.ar  185  PHE185     -0.0000
     77  N         36.5860   29.3030   29.1460 N.3   187  GLN187     -0.1245
     78  CA        36.7720   29.3800   27.6940 C.3   187  GLN187      0.1566
     79  C         36.0740   30.5860   27.1080 C.2   187  GLN187      0.2260
     80  O         34.8380   30.5850   26.9080 O.2   187  GLN187     -0.2867
     81  CB        36.2660   28.1170   26.9870 C.3   187  GLN187      0.0367
     82  CG        36.6760   26.8000   27.6010 C.3   187  GLN187      0.0905
     83  CD        36.0460   25.5740   26.9030 C.2   187  GLN187      0.2608
     84  OE1       35.8520   25.5580   25.6910 O.2   187  GLN187     -0.2717
     85  NE2       35.7830   24.5240   27.6700 N.am  187  GLN187     -0.0878
     86  N         35.9100   31.7810   24.1170 N.3   189  TYR189     -0.1227
     87  CA        35.9580   31.5430   22.6670 C.3   189  TYR189      0.1736
     88  C         34.8400   30.5410   22.3060 C.2   189  TYR189      0.2595
     89  O         34.2900   29.8720   23.1940 O.2   189  TYR189     -0.2718
     90  CB        37.3620   31.0300   22.2450 C.3   189  TYR189      0.0548
     91  CG        37.8500   29.8020   22.9880 C.ar  189  TYR189     -0.0200
     92  CD1       38.6260   29.9230   24.1560 C.ar  189  TYR189     -0.0009
     93  CD2       37.5450   28.5070   22.5330 C.ar  189  TYR189     -0.0009
     94  CE1       39.0870   28.8090   24.8430 C.ar  189  TYR189      0.0417
     95  CE2       38.0040   27.3580   23.2430 C.ar  189  TYR189      0.0417
     96  CZ        38.7770   27.5260   24.3920 C.ar  189  TYR189      0.1957
     97  OH        39.2300   26.4190   25.1170 O.3   189  TYR189     -0.2866
     98  N         34.5270   30.4280   21.0100 N.am  190  ASN190     -0.1974
     99  CA        33.3490   29.6930   20.5040 C.3   190  ASN190      0.1688
    100  C         32.0070   30.1430   21.1160 C.2   190  ASN190      0.2292
    101  O         31.0410   29.3580   21.1730 O.2   190  ASN190     -0.2864
    102  CB        33.4970   28.1730   20.6920 C.3   190  ASN190      0.1181
    103  CG        34.6770   27.5770   19.9350 C.2   190  ASN190      0.2629
    104  OD1       35.0580   28.0360   18.8500 O.2   190  ASN190     -0.2716
    105  ND2       35.2410   26.5100   20.4950 N.am  190  ASN190     -0.0877
    106  N         42.5150   27.2360   16.3130 N.3   229  ALA229     -0.1231
    107  CA        42.4580   26.3570   17.4540 C.3   229  ALA229      0.1694
    108  C         41.0380   26.1750   17.8800 C.2   229  ALA229      0.2591
    109  O         40.7020   25.2410   18.5720 O.2   229  ALA229     -0.2718
    110  CB        43.2300   26.9180   18.5370 C.3   229  ALA229      0.0304
    111  N         40.2260   27.1300   17.4750 N.am  230  ALA230     -0.1980
    112  CA        38.7940   27.1340   17.7290 C.3   230  ALA230      0.1597
    113  C         38.1700   27.8020   16.5220 C.2   230  ALA230      0.2287
    114  O         38.8860   28.3240   15.6550 O.2   230  ALA230     -0.2864
    115  CB        38.4750   27.9130   18.9860 C.3   230  ALA230      0.0319
    116  N         44.0940   26.5450   24.6370 N.3   260  TRP260     -0.1241
    117  CA        43.8260   25.3430   23.8770 C.3   260  TRP260      0.1605
    118  C         44.5580   25.4140   22.5490 C.2   260  TRP260      0.2264
    119  O         44.1790   26.2100   21.7350 O.2   260  TRP260     -0.2867
    120  CB        42.3110   25.1810   23.5770 C.3   260  TRP260      0.0550
    121  CG        42.1110   23.9100   22.7840 C.ar  260  TRP260      0.0003
    122  CD1       42.0440   23.7920   21.4200 C.ar  260  TRP260      0.0946
    123  CD2       42.0480   22.5850   23.3070 C.ar  260  TRP260      0.0152
    124  NE1       41.9080   22.4650   21.0620 N.ar  260  TRP260     -0.2442
    125  CE2       41.8990   21.7070   22.2080 C.ar  260  TRP260      0.0810
    126  CE3       42.0650   22.0500   24.6090 C.ar  260  TRP260      0.0012
    127  CZ2       41.7620   20.3180   22.3680 C.ar  260  TRP260      0.0191
    128  CZ3       41.9290   20.6550   24.7630 C.ar  260  TRP260      0.0001
    129  CH2       41.8090   19.8160   23.6430 C.ar  260  TRP260      0.0015
@<TRIPOS>BOND
     1   114   113    2
     2   106   107    1
     3   113   112    1
     4   107   108    1
     5   107   110    1
     6   111   112    1
     7   111   108   am
     8   112   115    1
     9   108   109    2
    10   104   103    2
    11    16    15    2
    12   103   105   am
    13   103   102    1
    14    15    14    1
    15    99   102    1
    16    99    98    1
    17    99   100    1
    18    98    88   am
    19    42    43    1
    20    42    39    1
    21   124   122   ar
    22   124   125   ar
    23   100   101    2
    24   122   121   ar
    25    14    17    1
    26    14    13    1
    27    20    19    2
    28   119   118    2
    29    17    18    1
    30   125   127   ar
    31   125   123   ar
    32    90    87    1
    33    90    91    1
    34    88    87    1
    35    88    89    2
    36   127   129   ar
    37    39    38    1
    38    39    40    1
    39    93    91   ar
    40    93    95   ar
    41   118   117    1
    42    37    34    1
    43    19    18    1
    44    19    21   am
    45    87    86    1
    46   121   123   ar
    47   121   120    1
    48    38    35   am
    49    91    92   ar
    50    36    35    2
    51    35    34    1
    52    95    96   ar
    53   123   126   ar
    54    40    41    2
    55   120   117    1
    56    34    33    1
    57   129   128   ar
    58   117   116    1
    59    92    94   ar
    60    96    94   ar
    61    96    97    1
    62   126   128   ar
    63    59    58   ar
    64    31    29   ar
    65    31    32   ar
    66    84    83    2
    67     4     3    2
    68    29    27   ar
    69    55    54    2
    70    58    60   ar
    71    58    57    1
    72    32    30   ar
    73     3     2    1
    74    56    57    1
    75    56    53    1
    76     5     2    1
    77     5     6    1
    78    83    82    1
    79    83    85   am
    80    80    79    2
    81    81    82    1
    82    81    78    1
    83    22    23    1
    84    79    78    1
    85    27    26    1
    86    27    28   ar
    87    54    53    1
    88     2     1    1
    89    26    23    1
    90    30    28   ar
    91    78    77    1
    92    53    52    1
    93     6     7   ar
    94     6     8   ar
    95    51    49   ar
    96    25    24    2
    97     7     9   ar
    98    23    24    1
    99     8    10   ar
   100    50    49   ar
   101    49    48    1
   102     9    11   ar
   103    10    11   ar
   104    47    46    2
   105    11    12    1
   106    48    45    1
   107    64    63    2
   108    46    45    1
   109    45    44    1
   110    65    62    1
   111    69    68    2
   112    63    62    1
   113    68    67    1
   114    62    61    1
   115    70    67    1
   116    70    71    1
   117    67    66    1
   118    71    72   ar
   119    71    73   ar
   120    72    74   ar
   121    73    75   ar
   122    74    76   ar
   123    75    76   ar
