@<TRIPOS>MOLECULE
tmp/2uy4A00.pdb
 107 101 0 0 0
SMALL
GASTEIGER

@<TRIPOS>ATOM
      1  N         46.4080   23.1920   27.9050 N.3     6  TYR6       -0.1241
      2  CA        45.9030   21.8340   27.6640 C.3     6  TYR6        0.1605
      3  C         46.9410   21.1130   26.7980 C.2     6  TYR6        0.2264
      4  O         47.5460   21.7350   25.9480 O.2     6  TYR6       -0.2867
      5  CB        44.5160   21.8760   26.9970 C.3     6  TYR6        0.0534
      6  CG        43.4630   22.2060   28.0290 C.ar    6  TYR6       -0.0201
      7  CD1       43.1890   23.5200   28.3930 C.ar    6  TYR6       -0.0009
      8  CD2       42.7710   21.1850   28.6610 C.ar    6  TYR6       -0.0009
      9  CE1       42.2420   23.8140   29.3770 C.ar    6  TYR6        0.0417
     10  CE2       41.8420   21.4600   29.6890 C.ar    6  TYR6        0.0417
     11  CZ        41.5890   22.7620   30.0400 C.ar    6  TYR6        0.1957
     12  OH        40.6610   22.9970   31.0460 O.3     6  TYR6       -0.2866
     13  N         45.7360   16.3540   22.9860 N.3     9  GLN9       -0.1245
     14  CA        44.8210   16.1240   21.8740 C.3     9  GLN9        0.1566
     15  C         45.3740   16.5600   20.5140 C.2     9  GLN9        0.2260
     16  O         44.7060   16.3800   19.4850 O.2     9  GLN9       -0.2867
     17  CB        43.4350   16.7550   22.1580 C.3     9  GLN9        0.0367
     18  CG        42.6790   15.9910   23.2680 C.3     9  GLN9        0.0905
     19  CD        42.3880   14.5380   22.8640 C.2     9  GLN9        0.2608
     20  OE1       41.6840   14.2750   21.8770 O.2     9  GLN9       -0.2717
     21  NE2       42.9750   13.5930   23.5860 N.am    9  GLN9       -0.0878
     22  N         42.8220   13.5700   27.2990 N.3    34  PHE34      -0.1241
     23  CA        41.8170   13.5830   28.3730 C.3    34  PHE34       0.1605
     24  C         41.6000   12.1760   28.9280 C.2    34  PHE34       0.2264
     25  O         41.8330   11.2100   28.2210 O.2    34  PHE34      -0.2867
     26  CB        40.4500   13.9540   27.7890 C.3    34  PHE34       0.0534
     27  CG        40.3070   15.3780   27.3780 C.ar   34  PHE34      -0.0203
     28  CD1       40.2570   16.3900   28.3270 C.ar   34  PHE34      -0.0042
     29  CD2       40.1480   15.6970   26.0250 C.ar   34  PHE34      -0.0042
     30  CE1       40.0900   17.7270   27.9390 C.ar   34  PHE34      -0.0003
     31  CE2       39.9850   17.0190   25.6170 C.ar   34  PHE34      -0.0003
     32  CZ        39.9420   18.0400   26.5820 C.ar   34  PHE34      -0.0000
     33  N         35.2780   17.8120   24.9390 N.3    84  ALA84      -0.1245
     34  CA        34.2000   17.8110   23.9470 C.3    84  ALA84       0.1562
     35  C         34.1240   16.3910   23.3850 C.2    84  ALA84       0.2260
     36  O         35.1460   15.7360   23.2730 O.2    84  ALA84      -0.2867
     37  CB        34.4990   18.8190   22.8350 C.3    84  ALA84       0.0290
     38  N         36.6920   19.0930   32.6650 N.3   129  ASP129     -0.1239
     39  CA        36.3560   19.7560   31.4040 C.3   129  ASP129      0.1674
     40  C         35.1150   19.0100   30.8710 C.2   129  ASP129      0.2266
     41  O         35.1630   18.3260   29.8550 O.2   129  ASP129     -0.2867
     42  CB        37.5460   19.7300   30.4260 C.3   129  ASP129      0.1410
     43  CG        37.2040   20.3560   29.0900 C.2   129  ASP129      0.3668
     44  OD1       36.1960   21.1010   29.0310 O.co2 129  ASP129     -0.2456
     45  OD2       37.9260   20.1020   28.0980 O.co2 129  ASP129     -0.2456
     46  N         31.6970   18.6440   29.1040 N.3   131  GLU131     -0.1245
     47  CA        31.0850   19.3690   27.9830 C.3   131  GLU131      0.1567
     48  C         29.7940   18.7270   27.4260 C.2   131  GLU131      0.2260
     49  O         29.3830   19.0450   26.3100 O.2   131  GLU131     -0.2867
     50  CB        32.1490   19.6280   26.8860 C.3   131  GLU131      0.0388
     51  CG        33.4260   20.3450   27.4600 C.3   131  GLU131      0.1160
     52  CD        34.2630   21.1660   26.4770 C.2   131  GLU131      0.3649
     53  OE1       33.9640   21.1920   25.2680 O.co2 131  GLU131     -0.2457
     54  OE2       35.2590   21.7950   26.9250 O.co2 131  GLU131     -0.2457
     55  N         36.5910   23.6550   33.7450 N.3   161  ALA161     -0.1245
     56  CA        36.7320   24.3200   32.4720 C.3   161  ALA161      0.1562
     57  C         35.3930   24.7360   31.8520 C.2   161  ALA161      0.2260
     58  O         35.0410   24.2770   30.7480 O.2   161  ALA161     -0.2867
     59  CB        37.5530   23.4260   31.4860 C.3   161  ALA161      0.0290
     60  N         36.5270   29.1920   29.1910 N.3   186  GLN186     -0.1245
     61  CA        36.7320   29.2380   27.7380 C.3   186  GLN186      0.1566
     62  C         36.0540   30.4540   27.1450 C.2   186  GLN186      0.2260
     63  O         34.8320   30.4490   26.9340 O.2   186  GLN186     -0.2867
     64  CB        36.2140   27.9450   27.0820 C.3   186  GLN186      0.0367
     65  CG        36.6200   26.7040   27.8280 C.3   186  GLN186      0.0905
     66  CD        36.1210   25.4420   27.1770 C.2   186  GLN186      0.2608
     67  OE1       36.0470   25.3570   25.9500 O.2   186  GLN186     -0.2717
     68  NE2       35.8310   24.4280   27.9820 N.am  186  GLN186     -0.0878
     69  N         35.9320   31.4360   24.1630 N.3   188  TYR188     -0.1227
     70  CA        36.0020   31.1300   22.7380 C.3   188  TYR188      0.1736
     71  C         34.8430   30.1920   22.3880 C.2   188  TYR188      0.2595
     72  O         34.2420   29.5830   23.2900 O.2   188  TYR188     -0.2718
     73  CB        37.3870   30.5490   22.3560 C.3   188  TYR188      0.0548
     74  CG        37.9050   29.3690   23.1780 C.ar  188  TYR188     -0.0200
     75  CD1       38.6780   29.5720   24.3260 C.ar  188  TYR188     -0.0009
     76  CD2       37.6630   28.0450   22.7700 C.ar  188  TYR188     -0.0009
     77  CE1       39.1710   28.4840   25.0720 C.ar  188  TYR188      0.0417
     78  CE2       38.1550   26.9360   23.5180 C.ar  188  TYR188      0.0417
     79  CZ        38.9020   27.1730   24.6630 C.ar  188  TYR188      0.1957
     80  OH        39.4040   26.1230   25.4230 O.3   188  TYR188     -0.2866
     81  N         34.5340   30.1020   21.0890 N.am  189  ASN189     -0.1974
     82  CA        33.3760   29.3600   20.5900 C.3   189  ASN189      0.1688
     83  C         32.0420   29.8460   21.1970 C.2   189  ASN189      0.2292
     84  O         31.0860   29.0660   21.3050 O.2   189  ASN189     -0.2864
     85  CB        33.5460   27.8410   20.7940 C.3   189  ASN189      0.1181
     86  CG        34.7060   27.2400   19.9850 C.2   189  ASN189      0.2629
     87  OD1       34.9870   27.6420   18.8470 O.2   189  ASN189     -0.2716
     88  ND2       35.3660   26.2410   20.5720 N.am  189  ASN189     -0.0877
     89  N         42.8580   26.8020   16.3080 N.3   228  ALA228     -0.1245
     90  CA        42.5700   26.0410   17.5300 C.3   228  ALA228      0.1562
     91  C         41.0900   26.0060   17.9390 C.2   228  ALA228      0.2260
     92  O         40.6720   25.1230   18.7020 O.2   228  ALA228     -0.2867
     93  CB        43.4190   26.5450   18.6650 C.3   228  ALA228      0.0290
     94  N         43.9620   26.5400   24.8120 N.3   259  TRP259     -0.1241
     95  CA        43.6880   25.3150   24.0890 C.3   259  TRP259      0.1605
     96  C         44.3830   25.3980   22.7260 C.2   259  TRP259      0.2264
     97  O         43.9370   26.1660   21.8920 O.2   259  TRP259     -0.2867
     98  CB        42.1840   25.1480   23.8150 C.3   259  TRP259      0.0550
     99  CG        41.9900   23.9060   23.0180 C.ar  259  TRP259      0.0003
    100  CD1       41.8460   23.8060   21.6640 C.ar  259  TRP259      0.0946
    101  CD2       41.9770   22.5710   23.5250 C.ar  259  TRP259      0.0152
    102  NE1       41.7350   22.4720   21.2960 N.ar  259  TRP259     -0.2442
    103  CE2       41.8120   21.7010   22.4170 C.ar  259  TRP259      0.0810
    104  CE3       42.0560   22.0220   24.8210 C.ar  259  TRP259      0.0012
    105  CZ2       41.7170   20.3050   22.5610 C.ar  259  TRP259      0.0191
    106  CZ3       41.9880   20.6160   24.9620 C.ar  259  TRP259      0.0001
    107  CH2       41.8230   19.7870   23.8340 C.ar  259  TRP259      0.0015
@<TRIPOS>BOND
     1    89    90    1
     2    90    91    1
     3    90    93    1
     4    91    92    2
     5    87    86    2
     6    16    15    2
     7    86    88   am
     8    86    85    1
     9    15    14    1
    10    82    85    1
    11    82    81    1
    12    82    83    1
    13    81    71   am
    14    83    84    2
    15   102   100   ar
    16   102   103   ar
    17   100    99   ar
    18    14    17    1
    19    14    13    1
    20    20    19    2
    21    97    96    2
    22    17    18    1
    23    73    70    1
    24    73    74    1
    25    71    70    1
    26    71    72    2
    27   103   105   ar
    28   103   101   ar
    29   105   107   ar
    30    96    95    1
    31    70    69    1
    32    76    74   ar
    33    76    78   ar
    34    37    34    1
    35    19    18    1
    36    19    21   am
    37    99   101   ar
    38    99    98    1
    39    74    75   ar
    40    36    35    2
    41    35    34    1
    42    78    79   ar
    43   101   104   ar
    44    98    95    1
    45   107   106   ar
    46    34    33    1
    47    95    94    1
    48    75    77   ar
    49    79    77   ar
    50    79    80    1
    51   104   106   ar
    52    53    52   ar
    53    31    29   ar
    54    31    32   ar
    55     4     3    2
    56    67    66    2
    57    29    27   ar
    58    49    48    2
    59    52    54   ar
    60    52    51    1
    61    32    30   ar
    62     3     2    1
    63    50    51    1
    64    50    47    1
    65    63    62    2
    66     5     2    1
    67     5     6    1
    68    64    61    1
    69    64    65    1
    70    62    61    1
    71    66    65    1
    72    66    68   am
    73    22    23    1
    74    27    26    1
    75    27    28   ar
    76    48    47    1
    77     2     1    1
    78    61    60    1
    79    26    23    1
    80    30    28   ar
    81    47    46    1
    82     6     7   ar
    83     6     8   ar
    84    45    43   ar
    85    25    24    2
    86    23    24    1
    87     7     9   ar
    88     8    10   ar
    89    44    43   ar
    90    43    42    1
    91     9    11   ar
    92    10    11   ar
    93    41    40    2
    94    11    12    1
    95    42    39    1
    96    58    57    2
    97    40    39    1
    98    39    38    1
    99    59    56    1
   100    57    56    1
   101    56    55    1
