@<TRIPOS>MOLECULE
tmp/2uy5A00.pdb
 135 129 0 0 0
SMALL
GASTEIGER

@<TRIPOS>ATOM
      1  N         46.4870   23.0680   27.7520 N.3     7  TYR7       -0.1241
      2  CA        45.9880   21.6900   27.5060 C.3     7  TYR7        0.1605
      3  C         46.9960   20.9800   26.6010 C.2     7  TYR7        0.2264
      4  O         47.5190   21.6050   25.6930 O.2     7  TYR7       -0.2867
      5  CB        44.5910   21.7580   26.8630 C.3     7  TYR7        0.0534
      6  CG        43.5880   22.0600   27.9470 C.ar    7  TYR7       -0.0201
      7  CD1       43.4220   23.3860   28.4290 C.ar    7  TYR7       -0.0009
      8  CD2       42.8660   21.0420   28.5260 C.ar    7  TYR7       -0.0009
      9  CE1       42.5660   23.6440   29.5000 C.ar    7  TYR7        0.0417
     10  CE2       41.9690   21.2750   29.5760 C.ar    7  TYR7        0.0417
     11  CZ        41.8250   22.5880   30.0690 C.ar    7  TYR7        0.1957
     12  OH        40.9780   22.8020   31.1590 O.3     7  TYR7       -0.2866
     13  N         42.8680   13.4460   27.0260 N.3    35  PHE35      -0.1241
     14  CA        41.8820   13.3750   28.1250 C.3    35  PHE35       0.1605
     15  C         41.7110   11.9550   28.6600 C.2    35  PHE35       0.2264
     16  O         41.9090   10.9770   27.9580 O.2    35  PHE35      -0.2867
     17  CB        40.4720   13.7740   27.6530 C.3    35  PHE35       0.0534
     18  CG        40.3350   15.2210   27.2610 C.ar   35  PHE35      -0.0203
     19  CD1       40.3150   16.2170   28.2430 C.ar   35  PHE35      -0.0042
     20  CD2       40.1900   15.5780   25.9170 C.ar   35  PHE35      -0.0042
     21  CE1       40.1930   17.5610   27.8730 C.ar   35  PHE35      -0.0003
     22  CE2       40.0770   16.9550   25.5330 C.ar   35  PHE35      -0.0003
     23  CZ        40.0470   17.9270   26.5320 C.ar   35  PHE35      -0.0000
     24  N         36.1220   16.0750   27.3850 N.3    84  GLY84      -0.1210
     25  CA        36.3430   16.2370   25.9770 C.3    84  GLY84       0.1956
     26  C         35.1370   15.8990   25.1110 C.2    84  GLY84       0.2611
     27  O         34.0380   15.5630   25.5960 O.2    84  GLY84      -0.2717
     28  N         35.3500   15.9920   23.8050 N.am   85  ALA85      -0.1979
     29  CA        34.2860   15.9100   22.8040 C.3    85  ALA85       0.1597
     30  C         33.7050   14.5070   22.5920 C.2    85  ALA85       0.2287
     31  O         32.7650   14.3320   21.8160 O.2    85  ALA85      -0.2864
     32  CB        34.8160   16.4640   21.4880 C.3    85  ALA85       0.0319
     33  N         36.7770   18.9440   32.2930 N.3   130  ASP130     -0.1239
     34  CA        36.5390   19.5730   31.0050 C.3   130  ASP130      0.1674
     35  C         35.3530   18.8430   30.3710 C.2   130  ASP130      0.2266
     36  O         35.4420   18.2160   29.3110 O.2   130  ASP130     -0.2867
     37  CB        37.8030   19.5600   30.1400 C.3   130  ASP130      0.1410
     38  CG        37.6760   20.4300   28.8810 C.2   130  ASP130      0.3668
     39  OD1       36.5860   21.0000   28.6040 O.co2 130  ASP130     -0.2456
     40  OD2       38.6920   20.5860   28.1680 O.co2 130  ASP130     -0.2456
     41  N         31.7950   18.2530   28.6250 N.3   132  GLU132     -0.1245
     42  CA        31.1910   18.8900   27.4450 C.3   132  GLU132      0.1567
     43  C         29.8190   18.3270   27.0090 C.2   132  GLU132      0.2260
     44  O         29.3250   18.6530   25.9210 O.2   132  GLU132     -0.2867
     45  CB        32.1340   18.7770   26.2420 C.3   132  GLU132      0.0388
     46  CG        33.4400   19.4780   26.3590 C.3   132  GLU132      0.1160
     47  CD        34.2820   19.2790   25.1130 C.2   132  GLU132      0.3649
     48  OE1       33.7240   19.2090   24.0110 O.co2 132  GLU132     -0.2457
     49  OE2       35.5090   19.1420   25.2390 O.co2 132  GLU132     -0.2457
     50  N         36.8310   23.5440   33.2990 N.3   162  ALA162     -0.1245
     51  CA        37.0340   24.2460   32.0270 C.3   162  ALA162      0.1562
     52  C         35.6820   24.6420   31.4160 C.2   162  ALA162      0.2260
     53  O         35.2880   24.1230   30.3330 O.2   162  ALA162     -0.2867
     54  CB        37.8010   23.3740   31.0490 C.3   162  ALA162      0.0290
     55  N         39.3960   27.4700   34.1650 N.3   185  PHE185     -0.1241
     56  CA        39.9810   27.7280   32.8660 C.3   185  PHE185      0.1605
     57  C         38.8170   28.0340   31.9120 C.2   185  PHE185      0.2264
     58  O         38.2590   27.1390   31.2850 O.2   185  PHE185     -0.2867
     59  CB        40.8060   26.5170   32.3960 C.3   185  PHE185      0.0534
     60  CG        41.9000   26.0930   33.3620 C.ar  185  PHE185     -0.0203
     61  CD1       42.8820   26.9830   33.7650 C.ar  185  PHE185     -0.0042
     62  CD2       41.9590   24.7750   33.8250 C.ar  185  PHE185     -0.0042
     63  CE1       43.8920   26.5710   34.6670 C.ar  185  PHE185     -0.0003
     64  CE2       42.9540   24.3520   34.7090 C.ar  185  PHE185     -0.0003
     65  CZ        43.9400   25.2540   35.1180 C.ar  185  PHE185     -0.0000
     66  N         36.7390   29.3080   28.8050 N.3   187  GLN187     -0.1245
     67  CA        36.9290   29.4560   27.3530 C.3   187  GLN187      0.1566
     68  C         36.2140   30.6960   26.8310 C.2   187  GLN187      0.2260
     69  O         35.0050   30.6610   26.5650 O.2   187  GLN187     -0.2867
     70  CB        36.4280   28.2120   26.6310 C.3   187  GLN187      0.0367
     71  CG        37.0770   26.9210   27.1220 C.3   187  GLN187      0.0905
     72  CD        36.4100   25.7060   26.5550 C.2   187  GLN187      0.2608
     73  OE1       36.2090   25.6090   25.3450 O.2   187  GLN187     -0.2717
     74  NE2       36.0470   24.7750   27.4130 N.am  187  GLN187     -0.0878
     75  N         36.1460   31.9570   23.9710 N.3   189  TYR189     -0.1227
     76  CA        36.2230   31.7700   22.5300 C.3   189  TYR189      0.1736
     77  C         35.1040   30.8280   22.1060 C.2   189  TYR189      0.2595
     78  O         34.4570   30.2380   22.9590 O.2   189  TYR189     -0.2718
     79  CB        37.6190   31.2840   22.1020 C.3   189  TYR189      0.0548
     80  CG        38.0560   29.9420   22.6710 C.ar  189  TYR189     -0.0200
     81  CD1       38.7770   29.8560   23.8750 C.ar  189  TYR189     -0.0009
     82  CD2       37.7690   28.7620   21.9830 C.ar  189  TYR189     -0.0009
     83  CE1       39.1860   28.6150   24.3780 C.ar  189  TYR189      0.0417
     84  CE2       38.1770   27.5260   22.4570 C.ar  189  TYR189      0.0417
     85  CZ        38.8730   27.4550   23.6610 C.ar  189  TYR189      0.1957
     86  OH        39.2740   26.2270   24.0870 O.3   189  TYR189     -0.2866
     87  N         34.8380   30.7420   20.8010 N.am  190  ASN190     -0.1974
     88  CA        33.7220   29.9530   20.2560 C.3   190  ASN190      0.1688
     89  C         32.3560   30.3340   20.8300 C.2   190  ASN190      0.2292
     90  O         31.4610   29.4950   20.8720 O.2   190  ASN190     -0.2864
     91  CB        33.9460   28.4480   20.4600 C.3   190  ASN190      0.1181
     92  CG        35.0690   27.9030   19.6180 C.2   190  ASN190      0.2629
     93  OD1       35.5170   28.5540   18.6580 O.2   190  ASN190     -0.2716
     94  ND2       35.5200   26.6870   19.9460 N.am  190  ASN190     -0.0877
     95  N         40.8990   31.9220   29.1340 N.3   222  GLY222     -0.1225
     96  CA        41.1010   30.7820   28.2320 C.3   222  GLY222      0.1811
     97  C         40.9990   31.2110   26.7830 C.2   222  GLY222      0.2280
     98  O         40.0010   31.8240   26.3800 O.2   222  GLY222     -0.2866
     99  N         42.9470   26.7850   15.9550 N.3   229  ALA229     -0.1231
    100  CA        42.7290   25.9890   17.1660 C.3   229  ALA229      0.1694
    101  C         41.2470   25.9320   17.5170 C.2   229  ALA229      0.2591
    102  O         40.7700   25.0770   18.1990 O.2   229  ALA229     -0.2718
    103  CB        43.4510   26.5460   18.2300 C.3   229  ALA229      0.0304
    104  N         40.5400   26.8760   16.9650 N.am  230  ALA230     -0.1980
    105  CA        39.1240   27.1680   17.2310 C.3   230  ALA230      0.1597
    106  C         38.3930   27.8620   16.0870 C.2   230  ALA230      0.2287
    107  O         38.9900   28.5780   15.3780 O.2   230  ALA230     -0.2864
    108  CB        38.9760   27.9280   18.4310 C.3   230  ALA230      0.0319
    109  N         44.9480   30.5080   30.0520 N.3   258  ALA258     -0.1231
    110  CA        44.8860   29.0700   29.7250 C.3   258  ALA258      0.1694
    111  C         44.7420   28.9270   28.2090 C.2   258  ALA258      0.2592
    112  O         43.9510   29.6610   27.5820 O.2   258  ALA258     -0.2718
    113  CB        43.6850   28.3950   30.4360 C.3   258  ALA258      0.0304
    114  N         45.4770   27.9870   27.6080 N.am  259  LEU259     -0.1966
    115  CA        45.5360   27.8920   26.1390 C.3   259  LEU259      0.1728
    116  C         45.0920   26.5280   25.6020 C.2   259  LEU259      0.2616
    117  O         45.5340   25.5030   26.1100 O.2   259  LEU259     -0.2715
    118  CB        46.9560   28.2210   25.6410 C.3   259  LEU259      0.0311
    119  CG        47.3570   29.6930   25.8430 C.3   259  LEU259      0.0022
    120  CD1       48.8690   29.8150   25.8680 C.3   259  LEU259      0.0001
    121  CD2       46.7280   30.5750   24.7810 C.3   259  LEU259      0.0001
    122  N         44.2560   26.5410   24.5530 N.am  260  TRP260     -0.1974
    123  CA        43.9100   25.3290   23.8060 C.3   260  TRP260      0.1640
    124  C         44.6430   25.4060   22.4440 C.2   260  TRP260      0.2290
    125  O         44.2870   26.2420   21.6200 O.2   260  TRP260     -0.2864
    126  CB        42.3940   25.2400   23.5290 C.3   260  TRP260      0.0576
    127  CG        42.0980   23.9930   22.7730 C.ar  260  TRP260      0.0006
    128  CD1       41.9320   23.8660   21.4130 C.ar  260  TRP260      0.0946
    129  CD2       42.0030   22.6870   23.3150 C.ar  260  TRP260      0.0152
    130  NE1       41.7320   22.5420   21.0830 N.ar  260  TRP260     -0.2442
    131  CE2       41.7600   21.7980   22.2350 C.ar  260  TRP260      0.0810
    132  CE3       42.0550   22.1730   24.6270 C.ar  260  TRP260      0.0012
    133  CZ2       41.5940   20.4060   22.4280 C.ar  260  TRP260      0.0191
    134  CZ3       41.9110   20.7760   24.8150 C.ar  260  TRP260      0.0001
    135  CH2       41.6800   19.9190   23.7210 C.ar  260  TRP260      0.0015
@<TRIPOS>BOND
     1   107   106    2
     2    99   100    1
     3   106   105    1
     4   104   105    1
     5   104   101   am
     6   100   101    1
     7   100   103    1
     8   105   108    1
     9   101   102    2
    10    93    92    2
    11    92    94   am
    12    92    91    1
    13    88    91    1
    14    88    87    1
    15    88    89    1
    16    87    77   am
    17    89    90    2
    18   130   128   ar
    19   130   131   ar
    20   128   127   ar
    21    32    29    1
    22   125   124    2
    23    31    30    2
    24    82    84   ar
    25    82    80   ar
    26    79    76    1
    27    79    80    1
    28    77    76    1
    29    77    78    2
    30   131   133   ar
    31   131   129   ar
    32   133   135   ar
    33   124   123    1
    34    84    85   ar
    35    76    75    1
    36    30    29    1
    37    80    81   ar
    38   127   129   ar
    39   127   126    1
    40    29    28    1
    41   129   132   ar
    42   126   123    1
    43    85    86    1
    44    85    83   ar
    45   135   134   ar
    46    28    26   am
    47   123   122    1
    48    81    83   ar
    49    48    47   ar
    50   122   116   am
    51   132   134   ar
    52   121   119    1
    53    26    27    2
    54    26    25    1
    55    47    49   ar
    56    47    46    1
    57    73    72    2
    58    22    20   ar
    59    22    23   ar
    60   116   117    2
    61   116   115    1
    62   118   119    1
    63   118   115    1
    64     4     3    2
    65   119   120    1
    66    20    18   ar
    67    44    43    2
    68    25    24    1
    69   115   114    1
    70    45    46    1
    71    45    42    1
    72    98    97    2
    73    23    21   ar
    74    72    71    1
    75    72    74   am
    76    69    68    2
    77     3     2    1
    78    70    71    1
    79    70    67    1
    80    97    96    1
    81    68    67    1
    82     5     2    1
    83     5     6    1
    84    43    42    1
    85    13    14    1
    86    18    17    1
    87    18    19   ar
    88    67    66    1
    89    42    41    1
    90     2     1    1
    91   112   111    2
    92   114   111   am
    93    17    14    1
    94    21    19   ar
    95     6     7   ar
    96     6     8   ar
    97    16    15    2
    98    14    15    1
    99    40    38   ar
   100   111   110    1
   101    96    95    1
   102     7     9   ar
   103     8    10   ar
   104    39    38   ar
   105    38    37    1
   106    36    35    2
   107     9    11   ar
   108    10    11   ar
   109   110   109    1
   110   110   113    1
   111    11    12    1
   112    37    34    1
   113    53    52    2
   114    35    34    1
   115    34    33    1
   116    54    51    1
   117    58    57    2
   118    52    51    1
   119    57    56    1
   120    51    50    1
   121    59    56    1
   122    59    60    1
   123    56    55    1
   124    60    61   ar
   125    60    62   ar
   126    61    63   ar
   127    62    64   ar
   128    63    65   ar
   129    64    65   ar
