@<TRIPOS>MOLECULE
tmp/2uydA00.pdb
 186 181 0 0 0
SMALL
GASTEIGER

@<TRIPOS>ATOM
      1  N         57.0240    8.6150   28.8260 N.3    32  HIS32      -0.1226
      2  CA        56.0980    7.5160   28.9580 C.3    32  HIS32       0.1752
      3  C         56.3830    6.4370   27.8940 C.2    32  HIS32       0.2597
      4  O         55.6090    6.2230   26.9450 O.2    32  HIS32      -0.2718
      5  CB        54.6720    8.0190   28.8680 C.3    32  HIS32       0.0759
      6  CG        53.6930    7.0740   29.4570 C.ar   32  HIS32       0.0818
      7  ND1       53.1560    7.2530   30.7090 N.ar   32  HIS32      -0.2268
      8  CD2       53.1960    5.9050   28.9930 C.ar   32  HIS32       0.1154
      9  CE1       52.3450    6.2460   30.9830 C.ar   32  HIS32       0.1986
     10  NE2       52.3490    5.4130   29.9570 N.ar   32  HIS32      -0.2212
     11  N         57.5180    5.7650   28.0940 N.am   33  THR33      -0.1939
     12  CA        58.0370    4.7120   27.2240 C.3    33  THR33       0.2028
     13  C         58.3960    3.4580   28.0590 C.2    33  THR33       0.2642
     14  O         58.4320    3.5080   29.3070 O.2    33  THR33      -0.2714
     15  CB        59.2840    5.2310   26.4140 C.3    33  THR33       0.1808
     16  OG1       60.2290    5.8800   27.2760 O.3    33  THR33      -0.2208
     17  CG2       58.8940    6.3280   25.4320 C.3    33  THR33       0.0379
     18  N         58.6730    2.3520   27.3540 N.am   34  ASN34      -0.1957
     19  CA        58.9120    1.0320   27.9740 C.3    34  ASN34       0.1819
     20  C         60.2370    0.8630   28.7530 C.2    34  ASN34       0.2621
     21  O         61.3270    1.1670   28.2390 O.2    34  ASN34      -0.2715
     22  CB        58.8100   -0.0790   26.9290 C.3    34  ASN34       0.1195
     23  CG        57.4220   -0.2000   26.3470 C.2    34  ASN34       0.2630
     24  OD1       56.4380    0.2720   26.9410 O.2    34  ASN34      -0.2716
     25  ND2       57.3290   -0.8300   25.1730 N.am   34  ASN34      -0.0877
     26  N         60.1130    0.3340   29.9780 N.am   35  GLY35      -0.1954
     27  CA        61.1890    0.3060   30.9540 C.3    35  GLY35       0.1869
     28  C         61.1330    1.4800   31.9230 C.2    35  GLY35       0.2309
     29  O         61.6840    1.3670   33.0240 O.2    35  GLY35      -0.2863
     30  N         58.0590    3.8200   32.6660 N.3    37  VAL37      -0.1231
     31  CA        56.7980    4.2510   33.3250 C.3    37  VAL37       0.1692
     32  C         56.8570    4.1610   34.8860 C.2    37  VAL37       0.2593
     33  O         57.6730    3.4050   35.4450 O.2    37  VAL37      -0.2718
     34  CB        55.5750    3.4530   32.7730 C.3    37  VAL37       0.0266
     35  CG1       54.2220    3.8890   33.4110 C.3    37  VAL37       0.0020
     36  CG2       55.5230    3.5800   31.2730 C.3    37  VAL37       0.0020
     37  N         56.0090    4.9550   35.5650 N.am   38  THR38      -0.1939
     38  CA        55.9490    5.0610   37.0360 C.3    38  THR38       0.2028
     39  C         54.5640    5.5990   37.4860 C.2    38  THR38       0.2642
     40  O         53.6900    5.8830   36.6480 O.2    38  THR38      -0.2714
     41  CB        57.0820    6.0390   37.5570 C.3    38  THR38       0.1808
     42  OG1       58.2820    5.9190   36.7780 O.3    38  THR38      -0.2208
     43  CG2       57.5620    5.7010   38.9920 C.3    38  THR38       0.0379
     44  N         54.3640    5.7340   38.8060 N.am   39  ASP39      -0.1971
     45  CA        53.3130    6.6310   39.3560 C.3    39  ASP39       0.1709
     46  C         53.5170    8.0880   38.8500 C.2    39  ASP39       0.2293
     47  O         52.5380    8.7790   38.5350 O.2    39  ASP39      -0.2864
     48  CB        53.1180    6.5890   40.9320 C.3    39  ASP39       0.1436
     49  CG        54.3950    6.1590   41.7650 C.2    39  ASP39       0.3671
     50  OD1       55.5460    6.5800   41.5130 O.co2  39  ASP39      -0.2456
     51  OD2       54.3190    5.4220   42.7700 O.co2  39  ASP39      -0.2456
     52  N         52.4490    9.1800   34.5780 N.3    42  SER42      -0.1202
     53  CA        51.2600    8.5340   34.0280 C.3    42  SER42       0.2020
     54  C         50.0340    9.4210   33.9780 C.2    42  SER42       0.2619
     55  O         49.1710    9.2650   33.1130 O.2    42  SER42      -0.2717
     56  CB        50.8870    7.3350   34.8920 C.3    42  SER42       0.2103
     57  OG        49.5600    7.4830   35.4000 O.3    42  SER42      -0.2182
     58  N         49.9100   10.2960   34.9650 N.am   43  GLY43      -0.1942
     59  CA        48.7520   11.1520   35.0600 C.3    43  GLY43       0.2014
     60  C         47.6460   10.4120   35.7660 C.2    43  GLY43       0.2639
     61  O         47.8970    9.4640   36.5190 O.2    43  GLY43      -0.2714
     62  N         46.4250   10.8540   35.5290 N.am   44  GLY44      -0.1939
     63  CA        45.2940   10.3460   36.2510 C.3    44  GLY44       0.2014
     64  C         44.0310   10.9250   35.6840 C.2    44  GLY44       0.2638
     65  O         44.0420   11.9720   35.0660 O.2    44  GLY44      -0.2714
     66  N         42.9290   10.2240   35.8850 N.am   45  PHE45      -0.1973
     67  CA        41.6220   10.6870   35.4410 C.3    45  PHE45       0.1639
     68  C         40.8410   11.1750   36.6510 C.2    45  PHE45       0.2290
     69  O         41.0760   10.7620   37.7870 O.2    45  PHE45      -0.2864
     70  CB        40.8440    9.5630   34.7400 C.3    45  PHE45       0.0560
     71  CG        41.4780    9.0810   33.4690 C.ar   45  PHE45      -0.0200
     72  CD1       42.6650    8.3420   33.4970 C.ar   45  PHE45      -0.0042
     73  CD2       40.8930    9.3670   32.2460 C.ar   45  PHE45      -0.0042
     74  CE1       43.2510    7.9190   32.3270 C.ar   45  PHE45      -0.0003
     75  CE2       41.4690    8.9360   31.0800 C.ar   45  PHE45      -0.0003
     76  CZ        42.6490    8.2160   31.1160 C.ar   45  PHE45      -0.0000
     77  N         39.7480    5.0750   37.6810 N.3    49  SER49      -0.1202
     78  CA        41.1640    4.6840   37.5680 C.3    49  SER49       0.2020
     79  C         41.7120    4.8490   36.1390 C.2    49  SER49       0.2618
     80  O         42.9170    4.9770   35.9620 O.2    49  SER49      -0.2717
     81  CB        41.3720    3.2270   38.0530 C.3    49  SER49       0.2103
     82  OG        42.0380    3.1660   39.3080 O.3    49  SER49      -0.2182
     83  N         40.8150    4.8870   35.1480 N.am   50  LEU50      -0.1979
     84  CA        41.1560    4.6370   33.7430 C.3    50  LEU50       0.1596
     85  C         40.2350    5.3710   32.7540 C.2    50  LEU50       0.2287
     86  O         40.6520    5.7120   31.6550 O.2    50  LEU50      -0.2864
     87  CB        41.0910    3.1240   33.4660 C.3    50  LEU50       0.0297
     88  CG        42.3690    2.3630   33.0790 C.3    50  LEU50       0.0022
     89  CD1       43.5400    2.6530   34.0290 C.3    50  LEU50       0.0001
     90  CD2       42.0910    0.8500   33.0080 C.3    50  LEU50       0.0001
     91  N         41.5220   14.1040   31.9350 N.3    55  TYR55      -0.1241
     92  CA        42.8260   13.4930   32.1950 C.3    55  TYR55       0.1605
     93  C         43.8430   14.6160   32.4020 C.2    55  TYR55       0.2264
     94  O         43.7240   15.6590   31.7660 O.2    55  TYR55      -0.2867
     95  CB        43.2230   12.5930   31.0150 C.3    55  TYR55       0.0534
     96  CG        44.6550   12.1440   31.0650 C.ar   55  TYR55      -0.0201
     97  CD1       45.0420   11.0930   31.8780 C.ar   55  TYR55      -0.0009
     98  CD2       45.6280   12.7910   30.3310 C.ar   55  TYR55      -0.0009
     99  CE1       46.3750   10.6850   31.9460 C.ar   55  TYR55       0.0417
    100  CE2       46.9580   12.3940   30.3980 C.ar   55  TYR55       0.0417
    101  CZ        47.3220   11.3390   31.2030 C.ar   55  TYR55       0.1957
    102  OH        48.6320   10.9490   31.2720 O.3    55  TYR55      -0.2866
    103  N         39.9570    5.2070   28.7140 N.3    75  TYR75      -0.1241
    104  CA        41.2630    4.6610   28.3270 C.3    75  TYR75       0.1605
    105  C         41.1570    3.1360   28.1520 C.2    75  TYR75       0.2264
    106  O         40.0700    2.5780   28.3120 O.2    75  TYR75      -0.2867
    107  CB        42.2740    4.9900   29.4080 C.3    75  TYR75       0.0534
    108  CG        43.6940    4.6240   29.1160 C.ar   75  TYR75      -0.0201
    109  CD1       44.2540    4.8540   27.8730 C.ar   75  TYR75      -0.0009
    110  CD2       44.4890    4.0660   30.0930 C.ar   75  TYR75      -0.0009
    111  CE1       45.5700    4.5340   27.6110 C.ar   75  TYR75       0.0417
    112  CE2       45.8080    3.7440   29.8450 C.ar   75  TYR75       0.0417
    113  CZ        46.3430    3.9770   28.6020 C.ar   75  TYR75       0.1957
    114  OH        47.6590    3.6750   28.3470 O.3    75  TYR75      -0.2866
    115  N         44.0030    0.4780   29.3040 N.3    77  LEU77      -0.1231
    116  CA        45.3790    0.1660   29.7340 C.3    77  LEU77       0.1693
    117  C         46.0120   -1.0310   29.0220 C.2    77  LEU77       0.2592
    118  O         47.0840   -0.8970   28.4140 O.2    77  LEU77      -0.2718
    119  CB        45.4850   -0.0480   31.2510 C.3    77  LEU77       0.0284
    120  CG        46.8170   -0.6930   31.7070 C.3    77  LEU77       0.0019
    121  CD1       47.6480    0.1920   32.6200 C.3    77  LEU77       0.0001
    122  CD2       46.5520   -2.0350   32.3740 C.3    77  LEU77       0.0001
    123  N         45.3790   -2.1980   29.1420 N.am   78  PHE78      -0.1976
    124  CA        45.8520   -3.4300   28.4890 C.3    78  PHE78       0.1639
    125  C         44.8460   -3.9500   27.4450 C.2    78  PHE78       0.2290
    126  O         45.1350   -4.8850   26.7100 O.2    78  PHE78      -0.2864
    127  CB        46.1180   -4.5090   29.5490 C.3    78  PHE78       0.0560
    128  CG        47.5470   -4.5500   30.0610 C.ar   78  PHE78      -0.0200
    129  CD1       48.2850   -3.3840   30.2520 C.ar   78  PHE78      -0.0042
    130  CD2       48.1450   -5.7730   30.3660 C.ar   78  PHE78      -0.0042
    131  CE1       49.5840   -3.4280   30.7340 C.ar   78  PHE78      -0.0003
    132  CE2       49.4490   -5.8280   30.8370 C.ar   78  PHE78      -0.0003
    133  CZ        50.1690   -4.6500   31.0240 C.ar   78  PHE78      -0.0000
    134  N         47.0770    0.0560   25.0970 N.3    83  ALA83      -0.1245
    135  CA        47.5940    1.3170   25.6370 C.3    83  ALA83       0.1562
    136  C         47.1950    2.5450   24.8150 C.2    83  ALA83       0.2260
    137  O         48.0470    3.3460   24.4420 O.2    83  ALA83      -0.2867
    138  CB        49.1210    1.2350   25.8090 C.3    83  ALA83       0.0290
    139  N         44.4860    5.8280   24.6250 N.3    85  LEU85      -0.1245
    140  CA        43.4780    6.8200   24.9820 C.3    85  LEU85       0.1561
    141  C         42.5080    7.0770   23.8670 C.2    85  LEU85       0.2260
    142  O         42.8670    7.5830   22.8090 O.2    85  LEU85      -0.2867
    143  CB        44.1540    8.1400   25.3530 C.3    85  LEU85       0.0270
    144  CG        43.2400    9.3150   25.6950 C.3    85  LEU85       0.0019
    145  CD1       42.2990    8.9650   26.8320 C.3    85  LEU85       0.0001
    146  CD2       44.0930   10.5170   26.0300 C.3    85  LEU85       0.0001
    147  N         46.0110    3.5970   19.0490 N.3   128  HIS128     -0.1241
    148  CA        47.2550    4.3610   19.1200 C.3   128  HIS128      0.1621
    149  C         47.6470    5.1490   17.8200 C.2   128  HIS128      0.2264
    150  O         48.7390    5.7430   17.7920 O.2   128  HIS128     -0.2867
    151  CB        48.3310    3.4050   19.7430 C.3   128  HIS128      0.0745
    152  CG        49.6680    3.3720   19.0630 C.ar  128  HIS128      0.0817
    153  ND1       49.8370    3.3780   17.6880 N.ar  128  HIS128     -0.2268
    154  CD2       50.8990    3.1770   19.5860 C.ar  128  HIS128      0.1154
    155  CE1       51.1220    3.2670   17.3960 C.ar  128  HIS128      0.1986
    156  NE2       51.7880    3.1370   18.5320 N.ar  128  HIS128     -0.2212
    157  N         44.1500   10.3500   20.8940 N.3   133  HIS133     -0.1241
    158  CA        45.3240    9.6380   21.3860 C.3   133  HIS133      0.1621
    159  C         46.5900   10.3860   20.9590 C.2   133  HIS133      0.2264
    160  O         47.4850   10.6180   21.7800 O.2   133  HIS133     -0.2867
    161  CB        45.4040    8.1830   20.9160 C.3   133  HIS133      0.0745
    162  CG        46.6820    7.5150   21.3270 C.ar  133  HIS133      0.0817
    163  ND1       47.7970    7.4690   20.5150 N.ar  133  HIS133     -0.2268
    164  CD2       47.0460    6.9240   22.4890 C.ar  133  HIS133      0.1154
    165  CE1       48.7820    6.8540   21.1490 C.ar  133  HIS133      0.1986
    166  NE2       48.3520    6.5110   22.3490 N.ar  133  HIS133     -0.2212
    167  N         48.7700   12.1240   23.7980 N.3   137  TYR137     -0.1241
    168  CA        50.0350   11.4190   23.9850 C.3   137  TYR137      0.1605
    169  C         51.1670   12.3210   23.5490 C.2   137  TYR137      0.2264
    170  O         52.2200   12.3650   24.1850 O.2   137  TYR137     -0.2867
    171  CB        50.1160   10.0820   23.2330 C.3   137  TYR137      0.0534
    172  CG        51.3890    9.3080   23.5800 C.ar  137  TYR137     -0.0201
    173  CD1       51.5450    8.6930   24.8110 C.ar  137  TYR137     -0.0009
    174  CD2       52.4470    9.2350   22.6970 C.ar  137  TYR137     -0.0009
    175  CE1       52.7120    8.0050   25.1430 C.ar  137  TYR137      0.0417
    176  CE2       53.6210    8.5420   23.0160 C.ar  137  TYR137      0.0417
    177  CZ        53.7380    7.9210   24.2350 C.ar  137  TYR137      0.1957
    178  OH        54.8910    7.2360   24.5450 O.3   137  TYR137     -0.2866
    179  N         51.9570   14.6620   26.2070 N.3   140  MET140     -0.1245
    180  CA        52.6870   13.9930   27.2920 C.3   140  MET140      0.1570
    181  C         54.1560   13.8530   26.9430 C.2   140  MET140      0.2261
    182  O         54.9590   13.6280   27.8290 O.2   140  MET140     -0.2867
    183  CB        52.1010   12.6110   27.6220 C.3   140  MET140      0.0387
    184  CG        50.6660   12.6170   28.1570 C.3   140  MET140      0.0595
    185  SD        49.7550   11.0360   27.9050 S.3   140  MET140     -0.1393
    186  CE        51.0910    9.8370   28.3880 C.3   140  MET140      0.0692
@<TRIPOS>BOND
     1   155   153   ar
     2   155   156   ar
     3   153   152   ar
     4   150   149    2
     5   149   148    1
     6   156   154   ar
     7   147   148    1
     8   152   154   ar
     9   152   151    1
    10   148   151    1
    11   163   165   ar
    12   163   162   ar
    13   157   158    1
    14   161   162    1
    15   161   158    1
    16   159   158    1
    17   159   160    2
    18   165   166   ar
    19   162   164   ar
    20   166   164   ar
    21   174   176   ar
    22   174   172   ar
    23   142   141    2
    24   176   177   ar
    25   171   172    1
    26   171   168    1
    27   169   168    1
    28   169   170    2
    29   172   173   ar
    30   167   168    1
    31   141   140    1
    32   177   178    1
    33   177   175   ar
    34   137   136    2
    35   139   140    1
    36   173   175   ar
    37   136   135    1
    38   140   143    1
    39   134   135    1
    40    25    23   am
    41   143   144    1
    42    17    15    1
    43   135   138    1
    44   144   146    1
    45   144   145    1
    46   179   180    1
    47    23    22    1
    48    23    24    2
    49    15    12    1
    50    15    16    1
    51   126   125    2
    52    22    19    1
    53   181   180    1
    54   181   182    2
    55     4     3    2
    56    12    13    1
    57    12    11    1
    58   180   183    1
    59    18    19    1
    60    18    13   am
    61   125   124    1
    62   111   109   ar
    63   111   113   ar
    64   183   184    1
    65   109   108   ar
    66     3    11   am
    67     3     2    1
    68   185   184    1
    69   185   186    1
    70    19    20    1
    71    13    14    2
    72   105   106    2
    73   105   104    1
    74    21    20    2
    75   104   103    1
    76   104   107    1
    77   114   113    1
    78   118   117    2
    79   124   123    1
    80   124   127    1
    81   113   112   ar
    82    20    26   am
    83     1     2    1
    84     5     2    1
    85     5     6    1
    86     8     6   ar
    87     8    10   ar
    88   117   123   am
    89   117   116    1
    90   108   107    1
    91   108   110   ar
    92   115   116    1
    93     6     7   ar
    94   127   128    1
    95   116   119    1
    96   112   110   ar
    97    10     9   ar
    98    26    27    1
    99   128   129   ar
   100   128   130   ar
   101   129   131   ar
   102    98   100   ar
   103    98    96   ar
   104   130   132   ar
   105   100   101   ar
   106     7     9   ar
   107   131   133   ar
   108   132   133   ar
   109    27    28    1
   110    95    96    1
   111    95    92    1
   112    96    97   ar
   113    75    76   ar
   114    75    73   ar
   115    76    74   ar
   116   101   102    1
   117   101    99   ar
   118   119   120    1
   119    36    34    1
   120    86    85    2
   121   120   122    1
   122   120   121    1
   123    94    93    2
   124    97    99   ar
   125    28    29    2
   126    91    92    1
   127    92    93    1
   128    73    71   ar
   129    74    72   ar
   130    30    31    1
   131    85    84    1
   132    34    31    1
   133    34    35    1
   134    90    88    1
   135    88    87    1
   136    88    89    1
   137    55    54    2
   138    31    32    1
   139    87    84    1
   140    71    72   ar
   141    71    70    1
   142    84    83    1
   143    54    53    1
   144    54    58   am
   145    53    52    1
   146    53    56    1
   147    70    67    1
   148    32    33    2
   149    32    37   am
   150    56    57    1
   151    58    59    1
   152    59    60    1
   153    65    64    2
   154    83    79   am
   155    67    66    1
   156    67    68    1
   157    62    60   am
   158    62    63    1
   159    37    38    1
   160    64    66   am
   161    64    63    1
   162    60    61    2
   163    80    79    2
   164    79    78    1
   165    40    39    2
   166    68    69    2
   167    42    41    1
   168    38    39    1
   169    38    41    1
   170    39    44   am
   171    41    43    1
   172    78    77    1
   173    78    81    1
   174    81    82    1
   175    47    46    2
   176    44    45    1
   177    46    45    1
   178    45    48    1
   179    48    49    1
   180    50    49   ar
   181    49    51   ar
