@<TRIPOS>MOLECULE
tmp/2uyhA00.pdb
 187 183 0 0 0
SMALL
GASTEIGER

@<TRIPOS>ATOM
      1  N        -11.9260   25.2650   77.5010 N.3    17  LEU17      -0.1231
      2  CA       -11.3070   25.5980   78.7770 C.3    17  LEU17       0.1693
      3  C        -12.1670   26.5670   79.5900 C.2    17  LEU17       0.2592
      4  O        -12.7900   27.4760   79.0450 O.2    17  LEU17      -0.2718
      5  CB        -9.9150   26.1920   78.5630 C.3    17  LEU17       0.0284
      6  CG        -8.8340   25.2630   78.0110 C.3    17  LEU17       0.0019
      7  CD1       -7.4940   25.9830   78.0980 C.3    17  LEU17       0.0001
      8  CD2       -8.7900   23.9530   78.8040 C.3    17  LEU17       0.0001
      9  N        -12.1900   26.3570   80.9020 N.am   18  PHE18      -0.1962
     10  CA       -12.9730   27.1820   81.8110 C.3    18  PHE18       0.1771
     11  C        -14.4090   27.0680   81.3210 C.2    18  PHE18       0.2619
     12  O        -15.2120   27.9950   81.4160 O.2    18  PHE18      -0.2715
     13  CB       -12.4300   28.6200   81.7670 C.3    18  PHE18       0.0574
     14  CG       -10.9780   28.7180   82.1850 C.ar   18  PHE18      -0.0200
     15  CD1      -10.6260   28.7020   83.5350 C.ar   18  PHE18      -0.0042
     16  CD2       -9.9600   28.6960   81.2310 C.ar   18  PHE18      -0.0042
     17  CE1       -9.2880   28.6500   83.9320 C.ar   18  PHE18      -0.0003
     18  CE2       -8.6070   28.6430   81.6220 C.ar   18  PHE18      -0.0003
     19  CZ        -8.2770   28.6170   82.9780 C.ar   18  PHE18      -0.0000
     20  N        -14.7040   25.8780   80.8060 N.am   19  ALA19      -0.1963
     21  CA       -15.9950   25.5130   80.2330 C.3    19  ALA19       0.1728
     22  C        -17.2410   26.2370   80.7210 C.2    19  ALA19       0.2617
     23  O        -17.9900   26.7650   79.8990 O.2    19  ALA19      -0.2715
     24  CB       -16.1980   24.0140   80.3600 C.3    19  ALA19       0.0334
     25  N        -17.4750   26.2480   82.0350 N.am   20  GLY20      -0.1940
     26  CA       -18.6640   26.8890   82.5770 C.3    20  GLY20       0.2014
     27  C        -19.9340   26.2020   82.0970 C.2    20  GLY20       0.2638
     28  O        -20.1400   25.0090   82.3370 O.2    20  GLY20      -0.2714
     29  N        -20.7960   26.9520   81.4190 N.am   21  LEU21      -0.1977
     30  CA       -22.0410   26.3960   80.8820 C.3    21  LEU21       0.1596
     31  C        -21.8130   25.7080   79.5250 C.2    21  LEU21       0.2287
     32  O        -22.6360   24.9010   79.0770 O.2    21  LEU21      -0.2864
     33  CB       -23.0970   27.5000   80.7210 C.3    21  LEU21       0.0297
     34  CG       -23.8870   27.8800   81.9750 C.3    21  LEU21       0.0022
     35  CD1      -24.6460   29.1640   81.7420 C.3    21  LEU21       0.0001
     36  CD2      -24.8410   26.7550   82.3340 C.3    21  LEU21       0.0001
     37  N        -20.7960   27.6840   76.8090 N.3    23  GLY23      -0.1210
     38  CA       -21.1110   28.7060   75.8270 C.3    23  GLY23       0.1956
     39  C        -20.2920   28.6150   74.5540 C.2    23  GLY23       0.2611
     40  O        -20.8350   28.7200   73.4620 O.2    23  GLY23      -0.2717
     41  N        -18.9840   28.4300   74.6770 N.am   24  PHE24      -0.1976
     42  CA       -18.1360   28.3200   73.4980 C.3    24  PHE24       0.1639
     43  C        -18.4620   27.0630   72.7110 C.2    24  PHE24       0.2290
     44  O        -18.4070   27.0730   71.4840 O.2    24  PHE24      -0.2864
     45  CB       -16.6470   28.3270   73.8730 C.3    24  PHE24       0.0560
     46  CG       -16.0900   29.7060   74.1490 C.ar   24  PHE24      -0.0200
     47  CD1      -16.2220   30.2920   75.4070 C.ar   24  PHE24      -0.0042
     48  CD2      -15.4540   30.4240   73.1390 C.ar   24  PHE24      -0.0042
     49  CE1      -15.7250   31.5730   75.6510 C.ar   24  PHE24      -0.0003
     50  CE2      -14.9570   31.7010   73.3730 C.ar   24  PHE24      -0.0003
     51  CZ       -15.0910   32.2790   74.6270 C.ar   24  PHE24      -0.0000
     52  N        -12.6340   21.4940   80.2790 N.3    39  ASN39      -0.1225
     53  CA       -12.0390   21.5970   81.6020 C.3    39  ASN39       0.1785
     54  C        -12.7870   22.6250   82.4370 C.2    39  ASN39       0.2597
     55  O        -12.9740   23.7590   82.0070 O.2    39  ASN39      -0.2718
     56  CB       -10.5610   21.9840   81.4650 C.3    39  ASN39       0.1169
     57  CG        -9.8170   21.9400   82.7880 C.2    39  ASN39       0.2627
     58  OD1       -9.8910   22.8750   83.5870 O.2    39  ASN39      -0.2716
     59  ND2       -9.1020   20.8440   83.0290 N.am   39  ASN39      -0.0877
     60  N        -13.2250   22.2100   83.6230 N.am   40  GLU40      -0.1965
     61  CA       -13.9680   23.0670   84.5520 C.3    40  GLU40       0.1733
     62  C        -13.9380   22.3840   85.9110 C.2    40  GLU40       0.2616
     63  O        -14.3000   21.2190   86.0150 O.2    40  GLU40      -0.2715
     64  CB       -15.4180   23.2230   84.0800 C.3    40  GLU40       0.0429
     65  CG       -16.3810   23.7300   85.1440 C.3    40  GLU40       0.1163
     66  CD       -16.1170   25.1670   85.5470 C.2    40  GLU40       0.3649
     67  OE1      -16.2800   26.0590   84.6880 O.co2  40  GLU40      -0.2457
     68  OE2      -15.7480   25.4010   86.7190 O.co2  40  GLU40      -0.2457
     69  N        -13.5280   23.0980   86.9530 N.am   41  TRP41      -0.1960
     70  CA       -13.4380   22.4850   88.2760 C.3    41  TRP41       0.1771
     71  C        -14.6160   22.6980   89.2100 C.2    41  TRP41       0.2619
     72  O        -14.7170   22.0410   90.2430 O.2    41  TRP41      -0.2715
     73  CB       -12.1560   22.9380   88.9780 C.3    41  TRP41       0.0590
     74  CG       -12.1170   24.3900   89.3940 C.ar   41  TRP41       0.0006
     75  CD1      -13.0200   25.3670   89.0840 C.ar   41  TRP41       0.0946
     76  CD2      -11.0990   25.0210   90.1780 C.ar   41  TRP41       0.0152
     77  NE1      -12.6230   26.5720   89.6230 N.ar   41  TRP41      -0.2442
     78  CE2      -11.4470   26.3840   90.3020 C.ar   41  TRP41       0.0810
     79  CE3       -9.9230   24.5650   90.7870 C.ar   41  TRP41       0.0012
     80  CZ2      -10.6560   27.2980   91.0110 C.ar   41  TRP41       0.0191
     81  CZ3       -9.1370   25.4780   91.4930 C.ar   41  TRP41       0.0001
     82  CH2       -9.5110   26.8270   91.5950 C.ar   41  TRP41       0.0015
     83  N        -15.5100   23.6110   88.8660 N.am   42  ASP42      -0.1971
     84  CA       -16.6440   23.8520   89.7360 C.3    42  ASP42       0.1709
     85  C        -17.5690   22.6440   89.6940 C.2    42  ASP42       0.2293
     86  O        -17.8500   22.0980   88.6240 O.2    42  ASP42      -0.2864
     87  CB       -17.3750   25.1240   89.3090 C.3    42  ASP42       0.1436
     88  CG       -18.5500   25.4430   90.2030 C.2    42  ASP42       0.3671
     89  OD1      -19.6870   25.2730   89.7380 O.co2  42  ASP42      -0.2456
     90  OD2      -18.3470   25.8480   91.3640 O.co2  42  ASP42      -0.2456
     91  N        -21.1400   23.5340   88.1090 N.3    45  ALA45      -0.1245
     92  CA       -20.9770   23.8660   86.6920 C.3    45  ALA45       0.1562
     93  C        -20.7610   22.5490   85.9300 C.2    45  ALA45       0.2260
     94  O        -21.3180   22.3250   84.8500 O.2    45  ALA45      -0.2867
     95  CB       -19.7760   24.7980   86.5020 C.3    45  ALA45       0.0290
     96  N         -9.2720   21.1740   87.9660 N.3    60  ASP60      -0.1225
     97  CA        -8.1940   22.1560   88.0470 C.3    60  ASP60       0.1805
     98  C         -7.2420   22.1710   86.8620 C.2    60  ASP60       0.2598
     99  O         -6.4100   21.2720   86.7200 O.2    60  ASP60      -0.2718
    100  CB        -7.3780   21.9200   89.3040 C.3    60  ASP60       0.1424
    101  CG        -6.6710   23.1630   89.7630 C.2    60  ASP60       0.3668
    102  OD1       -6.2200   23.9300   88.8850 O.co2  60  ASP60      -0.2456
    103  OD2       -6.5670   23.3710   90.9930 O.co2  60  ASP60      -0.2456
    104  N         -7.3490   23.2090   86.0330 N.am   61  ILE61      -0.1966
    105  CA        -6.5050   23.3600   84.8420 C.3    61  ILE61       0.1727
    106  C         -5.0350   23.5170   85.2040 C.2    61  ILE61       0.2616
    107  O         -4.1470   23.1900   84.4140 O.2    61  ILE61      -0.2715
    108  CB        -6.9370   24.5900   83.9920 C.3    61  ILE61       0.0290
    109  CG1       -6.1190   24.6600   82.7060 C.3    61  ILE61       0.0022
    110  CG2       -6.7350   25.8650   84.7740 C.3    61  ILE61       0.0023
    111  CD1       -6.3320   23.4840   81.7810 C.3    61  ILE61       0.0001
    112  N         -4.7720   24.0150   86.4030 N.am   62  THR62      -0.1951
    113  CA        -3.3960   24.2090   86.8310 C.3    62  THR62       0.1897
    114  C         -2.7060   22.8960   87.2100 C.2    62  THR62       0.2313
    115  O         -1.4800   22.8510   87.3420 O.2    62  THR62      -0.2863
    116  CB        -3.3280   25.1540   88.0280 C.3    62  THR62       0.1794
    117  OG1       -3.7470   24.4560   89.2040 O.3    62  THR62      -0.2208
    118  CG2       -4.2260   26.3460   87.7990 C.3    62  THR62       0.0378
    119  N        -12.5540   31.3530   78.1680 N.3    78  GLY78      -0.1210
    120  CA       -13.1070   32.5880   78.6860 C.3    78  GLY78       0.1956
    121  C        -12.6520   32.5220   80.1280 C.2    78  GLY78       0.2612
    122  O        -13.4260   32.1680   81.0130 O.2    78  GLY78      -0.2717
    123  N        -11.3740   32.8200   80.3610 N.am   79  PHE79      -0.1962
    124  CA       -10.8210   32.7600   81.7060 C.3    79  PHE79       0.1756
    125  C        -11.4960   33.7290   82.6900 C.2    79  PHE79       0.2461
    126  O        -12.2130   34.6530   82.2810 O.2    79  PHE79      -0.2730
    127  CB        -9.2860   32.9580   81.6660 C.3    79  PHE79       0.0574
    128  CG        -8.8270   34.1610   80.8880 C.ar   79  PHE79      -0.0200
    129  CD1       -8.9050   34.1840   79.5020 C.ar   79  PHE79      -0.0042
    130  CD2       -8.3420   35.2860   81.5490 C.ar   79  PHE79      -0.0042
    131  CE1       -8.5130   35.3120   78.7830 C.ar   79  PHE79      -0.0003
    132  CE2       -7.9470   36.4190   80.8430 C.ar   79  PHE79      -0.0003
    133  CZ        -8.0340   36.4350   79.4600 C.ar   79  PHE79      -0.0000
    134  N        -11.3100   33.4980   84.0010 N.am   80  PRO80      -0.2727
    135  CA       -11.8720   34.3050   85.0890 C.3    80  PRO80       0.1402
    136  C        -11.7060   35.8020   84.8960 C.2    80  PRO80       0.2269
    137  O        -10.8970   36.2350   84.0890 O.2    80  PRO80      -0.2865
    138  CB       -11.1220   33.7910   86.3120 C.3    80  PRO80       0.0296
    139  CG       -10.9790   32.3480   85.9970 C.3    80  PRO80       0.0237
    140  CD       -10.5410   32.3670   84.5490 C.3    80  PRO80       0.0939
    141  N         -4.6920   32.7010   85.5440 N.3   100  LEU100     -0.1245
    142  CA        -5.1100   31.6080   84.6800 C.3   100  LEU100      0.1561
    143  C         -4.6740   31.7370   83.2310 C.2   100  LEU100      0.2260
    144  O         -4.4710   30.7290   82.5520 O.2   100  LEU100     -0.2867
    145  CB        -6.6240   31.4260   84.7260 C.3   100  LEU100      0.0270
    146  CG        -7.1890   30.5920   85.8780 C.3   100  LEU100      0.0019
    147  CD1       -6.4250   29.2870   85.9610 C.3   100  LEU100      0.0001
    148  CD2       -7.1070   31.3480   87.1810 C.3   100  LEU100      0.0001
    149  N        -11.9220   35.2070   75.8410 N.3   119  GLU119     -0.1245
    150  CA       -12.9250   36.1920   76.2230 C.3   119  GLU119      0.1567
    151  C        -12.7760   36.5830   77.6760 C.2   119  GLU119      0.2260
    152  O        -12.5940   35.7290   78.5300 O.2   119  GLU119     -0.2867
    153  CB       -14.3300   35.6060   75.9960 C.3   119  GLU119      0.0388
    154  CG       -15.5390   36.4750   76.4160 C.3   119  GLU119      0.1160
    155  CD       -15.9440   36.3300   77.8890 C.2   119  GLU119      0.3649
    156  OE1      -15.7230   35.2590   78.4820 O.co2 119  GLU119     -0.2457
    157  OE2      -16.5140   37.2920   78.4540 O.co2 119  GLU119     -0.2457
    158  N        -24.0280   30.7780   87.1420 N.3   301  GLN301     -0.1245
    159  CA       -23.5040   30.2710   85.8870 C.3   301  GLN301      0.1566
    160  C        -23.8120   31.2250   84.7420 C.2   301  GLN301      0.2260
    161  O        -22.9220   31.5960   83.9900 O.2   301  GLN301     -0.2867
    162  CB       -24.0520   28.8630   85.6500 C.3   301  GLN301      0.0367
    163  CG       -23.7050   27.9410   86.8390 C.3   301  GLN301      0.0905
    164  CD       -24.3140   26.5480   86.7690 C.2   301  GLN301      0.2608
    165  OE1      -25.2700   26.3010   86.0280 O.2   301  GLN301     -0.2717
    166  NE2      -23.7680   25.6310   87.5630 N.am  301  GLN301     -0.0878
    167  N        -21.6200   34.2740   84.8080 N.3   304  ASN304     -0.1225
    168  CA       -20.2460   33.9910   84.4150 C.3   304  ASN304      0.1785
    169  C        -20.1530   33.6610   82.9390 C.2   304  ASN304      0.2598
    170  O        -19.0720   33.7170   82.3590 O.2   304  ASN304     -0.2718
    171  CB       -19.7390   32.7690   85.1660 C.3   304  ASN304      0.1169
    172  CG       -18.7110   33.0930   86.2230 C.2   304  ASN304      0.2627
    173  OD1      -18.2450   34.2210   86.3610 O.2   304  ASN304     -0.2716
    174  ND2      -18.3420   32.0790   86.9780 N.am  304  ASN304     -0.0877
    175  N        -21.2850   33.3180   82.3320 N.am  305  SER305     -0.1938
    176  CA       -21.2870   32.8770   80.9430 C.3   305  SER305      0.2055
    177  C        -21.0430   33.8950   79.8440 C.2   305  SER305      0.2642
    178  O        -20.6400   35.0210   80.1110 O.2   305  SER305     -0.2714
    179  CB       -22.5730   32.0980   80.6540 C.3   305  SER305      0.2130
    180  OG       -22.3450   31.1030   79.6620 O.3   305  SER305     -0.2179
    181  N        -21.2830   33.4620   78.6030 N.am  306  VAL306     -0.1977
    182  CA       -21.0810   34.2710   77.4060 C.3   306  VAL306      0.1596
    183  C        -22.3330   34.3370   76.5370 C.2   306  VAL306      0.2287
    184  O        -23.1740   33.4490   76.6100 O.2   306  VAL306     -0.2864
    185  CB       -19.9470   33.6890   76.5280 C.3   306  VAL306      0.0276
    186  CG1      -18.6020   33.9930   77.1340 C.3   306  VAL306      0.0022
    187  CG2      -20.1400   32.1840   76.3660 C.3   306  VAL306      0.0022
@<TRIPOS>BOND
     1    44    43    2
     2    43    42    1
     3    48    50   ar
     4    48    46   ar
     5    50    51   ar
     6    40    39    2
     7    42    45    1
     8    42    41    1
     9    45    46    1
    10    46    47   ar
    11    39    41   am
    12    39    38    1
    13    51    49   ar
    14    47    49   ar
    15    38    37    1
    16   149   150    1
    17   153   150    1
    18   153   154    1
    19   150   151    1
    20   187   185    1
    21   154   155    1
    22   185   186    1
    23   185   182    1
    24   183   184    2
    25   183   182    1
    26   182   181    1
    27     1     2    1
    28   151   152    2
    29   155   157   ar
    30   155   156   ar
    31     6     7    1
    32     6     5    1
    33     6     8    1
    34   119   120    1
    35     5     2    1
    36   181   177   am
    37   120   121    1
    38     2     3    1
    39   131   133   ar
    40   131   129   ar
    41     4     3    2
    42    32    31    2
    43   133   132   ar
    44   129   128   ar
    45    31    30    1
    46     3     9   am
    47   180   179    1
    48   177   178    2
    49   177   176    1
    50    23    22    2
    51   121   123   am
    52   121   122    2
    53    21    24    1
    54    21    22    1
    55    21    20    1
    56    52    53    1
    57   123   124    1
    58   179   176    1
    59    33    30    1
    60    33    34    1
    61    22    25   am
    62    20    11   am
    63   132   130   ar
    64    30    29    1
    65   128   130   ar
    66   128   127    1
    67     9    10    1
    68   176   175    1
    69    16    18   ar
    70    16    14   ar
    71    11    12    2
    72    11    10    1
    73    29    27   am
    74    56    53    1
    75    56    57    1
    76    53    54    1
    77    18    19   ar
    78   127   124    1
    79   124   125    1
    80    35    34    1
    81    13    10    1
    82    13    14    1
    83   111   109    1
    84    34    36    1
    85    55    54    2
    86    25    26    1
    87    27    28    2
    88    27    26    1
    89    14    15   ar
    90   126   125    2
    91   175   169   am
    92   170   169    2
    93    54    60   am
    94   144   143    2
    95   125   134   am
    96   109   108    1
    97    57    59   am
    98    57    58    2
    99   169   168    1
   100    19    17   ar
   101   143   142    1
   102    15    17   ar
   103    60    61    1
   104   161   160    2
   105   108   110    1
   106   108   105    1
   107   134   140    1
   108   134   135    1
   109    64    61    1
   110    64    65    1
   111   137   136    2
   112   107   106    2
   113   168   167    1
   114   168   171    1
   115   140   139    1
   116    61    62    1
   117   142   145    1
   118   142   141    1
   119    67    66   ar
   120   145   146    1
   121   160   159    1
   122   105   106    1
   123   105   104    1
   124    94    93    2
   125   136   135    1
   126   135   138    1
   127    65    66    1
   128   171   172    1
   129   106   112   am
   130    66    68   ar
   131   162   159    1
   132   162   163    1
   133   146   147    1
   134   146   148    1
   135   159   158    1
   136    62    63    2
   137    62    69   am
   138    93    92    1
   139   139   138    1
   140   165   164    2
   141   104    98   am
   142   172   173    2
   143   172   174   am
   144   112   113    1
   145    95    92    1
   146    92    91    1
   147    99    98    2
   148   164   163    1
   149   164   166   am
   150   113   114    1
   151   113   116    1
   152    98    97    1
   153    69    70    1
   154   114   115    2
   155   118   116    1
   156    96    97    1
   157   116   117    1
   158    97   100    1
   159    70    73    1
   160    70    71    1
   161    86    85    2
   162    83    71   am
   163    83    84    1
   164   102   101   ar
   165    73    74    1
   166    75    74   ar
   167    75    77   ar
   168    71    72    2
   169   100   101    1
   170    87    84    1
   171    87    88    1
   172    74    76   ar
   173    77    78   ar
   174    85    84    1
   175    89    88   ar
   176   101   103   ar
   177    76    78   ar
   178    76    79   ar
   179    88    90   ar
   180    78    80   ar
   181    79    81   ar
   182    80    82   ar
   183    81    82   ar
