@<TRIPOS>MOLECULE
tmp/2uyiA01.pdb
 151 144 0 0 0
SMALL
GASTEIGER

@<TRIPOS>ATOM
      1  N         20.5230    8.9260   27.3490 N.3   101  GLU101     -0.1231
      2  CA        20.1750   10.1950   28.0380 C.3   101  GLU101      0.1699
      3  C         19.1400    9.9850   29.1210 C.2   101  GLU101      0.2593
      4  O         19.3320   10.4380   30.2410 O.2   101  GLU101     -0.2718
      5  CB        19.6790   11.1970   27.0290 C.3   101  GLU101      0.0402
      6  CG        20.7910   11.4840   26.0110 C.3   101  GLU101      0.1161
      7  CD        20.4500   12.5660   25.0190 C.2   101  GLU101      0.3649
      8  OE1       19.3520   13.1120   25.0590 O.co2 101  GLU101     -0.2457
      9  OE2       21.3100   12.8620   24.2130 O.co2 101  GLU101     -0.2457
     10  N         18.1150    9.1860   28.7990 N.am  102  GLY102     -0.1942
     11  CA        16.9390    9.0140   29.6650 C.3   102  GLY102      0.2014
     12  C         15.9450   10.1670   29.5950 C.2   102  GLY102      0.2639
     13  O         16.1800   11.2080   28.9250 O.2   102  GLY102     -0.2714
     14  N         14.8620    9.9950   30.3390 N.am  103  GLU103     -0.1963
     15  CA        13.7290   10.9330   30.3950 C.3   103  GLU103      0.1733
     16  C         13.5120   11.4220   31.8620 C.2   103  GLU103      0.2616
     17  O         14.0620   10.8340   32.7890 O.2   103  GLU103     -0.2715
     18  CB        12.4860   10.1820   29.8940 C.3   103  GLU103      0.0429
     19  CG        12.4880    9.9470   28.4110 C.3   103  GLU103      0.1163
     20  CD        11.3160    9.0880   27.9780 C.2   103  GLU103      0.3649
     21  OE1       11.3400    8.6470   26.8200 O.co2 103  GLU103     -0.2457
     22  OE2       10.4060    8.8180   28.8170 O.co2 103  GLU103     -0.2457
     23  N         12.7210   12.4780   32.0810 N.am  104  ARG104     -0.1977
     24  CA        12.2470   12.7320   33.4460 C.3   104  ARG104      0.1597
     25  C         10.9740   11.9450   33.7810 C.2   104  ARG104      0.2287
     26  O         10.0800   11.7900   32.9590 O.2   104  ARG104     -0.2864
     27  CB        12.0320   14.2530   33.7040 C.3   104  ARG104      0.0334
     28  CG        13.2730   15.1830   33.4890 C.3   104  ARG104      0.0492
     29  CD        14.5700   14.7900   34.1670 C.3   104  ARG104      0.2205
     30  NE        14.3060   14.4930   35.5850 N.pl3 104  ARG104     -0.0865
     31  CZ        14.4870   15.3310   36.5890 C.cat 104  ARG104      0.5346
     32  NH1       15.0790   16.4890   36.3670 N.pl3 104  ARG104      0.1354
     33  NH2       14.1570   14.9460   37.8350 N.pl3 104  ARG104      0.1354
     34  N         17.0260   15.0300   39.6770 N.3   112  TRP112     -0.1241
     35  CA        17.5900   14.4600   38.4480 C.3   112  TRP112      0.1605
     36  C         18.5280   13.3370   38.8620 C.2   112  TRP112      0.2264
     37  O         18.6270   12.2930   38.1990 O.2   112  TRP112     -0.2867
     38  CB        18.3470   15.5170   37.6280 C.3   112  TRP112      0.0550
     39  CG        19.6390   16.0720   38.2470 C.ar  112  TRP112      0.0003
     40  CD1       19.7520   17.2000   39.0010 C.ar  112  TRP112      0.0946
     41  CD2       20.9930   15.5550   38.0960 C.ar  112  TRP112      0.0152
     42  NE1       21.0800   17.4140   39.3570 N.ar  112  TRP112     -0.2442
     43  CE2       21.8570   16.4270   38.8190 C.ar  112  TRP112      0.0810
     44  CE3       21.5530   14.4450   37.4150 C.ar  112  TRP112      0.0012
     45  CZ2       23.2230   16.2400   38.8930 C.ar  112  TRP112      0.0191
     46  CZ3       22.9320   14.2400   37.5100 C.ar  112  TRP112      0.0001
     47  CH2       23.7520   15.1340   38.2550 C.ar  112  TRP112      0.0015
     48  N         16.1150   10.2110   39.7290 N.3   115  ASP115     -0.1239
     49  CA        15.1490    9.7500   38.7610 C.3   115  ASP115      0.1674
     50  C         15.4550    8.3430   38.2210 C.2   115  ASP115      0.2266
     51  O         16.4610    8.1110   37.5970 O.2   115  ASP115     -0.2867
     52  CB        15.1360   10.7870   37.6270 C.3   115  ASP115      0.1410
     53  CG        13.8500   10.8570   36.9250 C.2   115  ASP115      0.3668
     54  OD1       13.4400   11.9570   36.6700 O.co2 115  ASP115     -0.2456
     55  OD2       13.2240    9.8370   36.6400 O.co2 115  ASP115     -0.2456
     56  N         16.6100    8.1600   34.4980 N.3   118  ALA118     -0.1245
     57  CA        17.9260    8.6910   34.1010 C.3   118  ALA118      0.1562
     58  C         18.7170    7.6610   33.3340 C.2   118  ALA118      0.2260
     59  O         18.6790    6.4780   33.6540 O.2   118  ALA118     -0.2867
     60  CB        18.7130    9.1650   35.3190 C.3   118  ALA118      0.0290
     61  N         24.2760    8.9050   30.4170 N.3   121  ILE121     -0.1231
     62  CA        25.0080   10.1980   30.5620 C.3   121  ILE121      0.1678
     63  C         24.8450   10.8910   31.9740 C.2   121  ILE121      0.2434
     64  O         25.8640   11.2100   32.6100 O.2   121  ILE121     -0.2733
     65  CB        24.6420   11.2100   29.4240 C.3   121  ILE121      0.0265
     66  CG1       25.2380   10.7680   28.0730 C.3   121  ILE121      0.0019
     67  CG2       25.0780   12.6240   29.8010 C.3   121  ILE121      0.0020
     68  CD1       24.5510   11.3630   26.8500 C.3   121  ILE121      0.0001
     69  N         23.6000   11.2040   32.4160 N.am  122  PRO122     -0.2729
     70  CA        23.5410   11.7860   33.7590 C.3   122  PRO122      0.1401
     71  C         24.0640   10.8110   34.8580 C.2   122  PRO122      0.2269
     72  O         24.8450   11.2580   35.6640 O.2   122  PRO122     -0.2865
     73  CB        22.0590   12.1180   33.9600 C.3   122  PRO122      0.0296
     74  CG        21.3350   11.1040   33.0560 C.3   122  PRO122      0.0237
     75  CD        22.2600   11.0280   31.8300 C.3   122  PRO122      0.0939
     76  N         29.7710   17.9890   23.3130 N.3   145  LEU145     -0.1245
     77  CA        28.7410   17.3660   22.5540 C.3   145  LEU145      0.1561
     78  C         28.8090   17.8230   21.0810 C.2   145  LEU145      0.2260
     79  O         28.4370   18.9250   20.7370 O.2   145  LEU145     -0.2867
     80  CB        27.3880   17.7320   23.1280 C.3   145  LEU145      0.0270
     81  CG        26.1610   17.0920   22.4650 C.3   145  LEU145      0.0019
     82  CD1       26.1960   15.5700   22.4510 C.3   145  LEU145      0.0001
     83  CD2       24.9670   17.5030   23.2660 C.3   145  LEU145      0.0001
     84  N         26.6310   22.1980   23.1110 N.3   157  LEU157     -0.1245
     85  CA        26.6940   22.4690   24.5510 C.3   157  LEU157      0.1561
     86  C         27.0880   23.9110   24.8400 C.2   157  LEU157      0.2260
     87  O         26.6350   24.4790   25.8550 O.2   157  LEU157     -0.2867
     88  CB        27.5830   21.4860   25.3390 C.3   157  LEU157      0.0270
     89  CG        27.0720   20.1020   25.8060 C.3   157  LEU157      0.0019
     90  CD1       28.0480   19.4300   26.7730 C.3   157  LEU157      0.0001
     91  CD2       25.6120   20.0380   26.3510 C.3   157  LEU157      0.0001
     92  N         23.4660   19.3140   35.9640 N.3   196  TYR196     -0.1241
     93  CA        22.1670   19.4930   35.3380 C.3   196  TYR196      0.1605
     94  C         22.0700   20.6560   34.3580 C.2   196  TYR196      0.2264
     95  O         21.5910   20.4430   33.2170 O.2   196  TYR196     -0.2867
     96  CB        21.0300   19.5590   36.3410 C.3   196  TYR196      0.0534
     97  CG        19.7690   19.0690   35.7440 C.ar  196  TYR196     -0.0201
     98  CD1       19.6920   17.7760   35.2070 C.ar  196  TYR196     -0.0009
     99  CD2       18.6490   19.8940   35.6650 C.ar  196  TYR196     -0.0009
    100  CE1       18.5040   17.2930   34.6450 C.ar  196  TYR196      0.0417
    101  CE2       17.4500   19.4260   35.0660 C.ar  196  TYR196      0.0417
    102  CZ        17.4000   18.1530   34.5470 C.ar  196  TYR196      0.1957
    103  OH        16.2320   17.7290   33.9780 O.3   196  TYR196     -0.2866
    104  N         23.6480   20.2490   30.8700 N.3   199  LEU199     -0.1231
    105  CA        22.7690   19.3890   30.0740 C.3   199  LEU199      0.1693
    106  C         21.4510   20.0850   29.6070 C.2   199  LEU199      0.2591
    107  O         21.1080   19.9750   28.4470 O.2   199  LEU199     -0.2718
    108  CB        22.4470   18.1230   30.8480 C.3   199  LEU199      0.0284
    109  CG        23.6480   17.3140   31.3380 C.3   199  LEU199      0.0019
    110  CD1       23.1340   16.1450   32.0670 C.3   199  LEU199      0.0001
    111  CD2       24.4930   16.8610   30.1520 C.3   199  LEU199      0.0001
    112  N         20.7720   20.8130   30.5040 N.am  200  GLU200     -0.1979
    113  CA        19.6330   21.7260   30.1560 C.3   200  GLU200      0.1602
    114  C         19.8910   22.7270   29.0080 C.2   200  GLU200      0.2287
    115  O         19.0290   22.9680   28.1720 O.2   200  GLU200     -0.2864
    116  CB        19.1320   22.5090   31.4050 C.3   200  GLU200      0.0415
    117  CG        18.4640   21.6600   32.4450 C.3   200  GLU200      0.1163
    118  CD        18.0050   22.4890   33.6490 C.2   200  GLU200      0.3649
    119  OE1       16.7760   22.5720   33.8620 O.co2 200  GLU200     -0.2457
    120  OE2       18.8740   23.0860   34.3490 O.co2 200  GLU200     -0.2457
    121  N         22.2840   22.4210   26.6200 N.3   202  GLY202     -0.1210
    122  CA        22.3320   21.5600   25.4720 C.3   202  GLY202      0.1956
    123  C         20.9920   21.0820   24.9840 C.2   202  GLY202      0.2611
    124  O         20.7870   21.0110   23.7550 O.2   202  GLY202     -0.2717
    125  N         20.0730   20.7950   25.9140 N.am  203  ALA203     -0.1979
    126  CA        18.7140   20.4140   25.5440 C.3   203  ALA203      0.1597
    127  C         18.0280   21.4960   24.7120 C.2   203  ALA203      0.2287
    128  O         17.3660   21.1890   23.6760 O.2   203  ALA203     -0.2864
    129  CB        17.8970   20.0780   26.7360 C.3   203  ALA203      0.0319
    130  N         19.4240   21.7550   21.3280 N.3   206  ARG206     -0.1245
    131  CA        18.8370   20.6450   20.5600 C.3   206  ARG206      0.1563
    132  C         17.4650   20.9730   19.9040 C.2   206  ARG206      0.2260
    133  O         17.1940   20.5020   18.8030 O.2   206  ARG206     -0.2867
    134  CB        18.6470   19.3750   21.4040 C.3   206  ARG206      0.0307
    135  CG        19.9120   18.5740   21.7380 C.3   206  ARG206      0.0489
    136  CD        19.9670   17.3870   20.8970 C.3   206  ARG206      0.2205
    137  NE        21.0200   16.4720   21.2840 N.pl3 206  ARG206     -0.0865
    138  CZ        20.8900   15.5160   22.1820 C.cat 206  ARG206      0.5346
    139  NH1       19.7510   15.3440   22.8290 N.pl3 206  ARG206      0.1354
    140  NH2       21.9310   14.7370   22.4010 N.pl3 206  ARG206      0.1354
    141  N         28.5810   12.5950   22.8760 N.3   224  PHE224     -0.1241
    142  CA        28.7900   13.2360   24.1590 C.3   224  PHE224      0.1605
    143  C         30.1070   12.6640   24.7190 C.2   224  PHE224      0.2264
    144  O         30.2600   11.4510   24.8280 O.2   224  PHE224     -0.2867
    145  CB        27.6000   12.9410   25.0860 C.3   224  PHE224      0.0534
    146  CG        27.5400   13.8390   26.3410 C.ar  224  PHE224     -0.0203
    147  CD1       28.4130   13.6140   27.4400 C.ar  224  PHE224     -0.0042
    148  CD2       26.6210   14.9000   26.4100 C.ar  224  PHE224     -0.0042
    149  CE1       28.3890   14.4760   28.5670 C.ar  224  PHE224     -0.0003
    150  CE2       26.5630   15.7520   27.5280 C.ar  224  PHE224     -0.0003
    151  CZ        27.4880   15.5320   28.6300 C.ar  224  PHE224     -0.0000
@<TRIPOS>BOND
     1   133   132    2
     2   132   131    1
     3   131   130    1
     4   131   134    1
     5    79    78    2
     6   136   137    1
     7   136   135    1
     8    78    77    1
     9   137   138    2
    10   134   135    1
    11   138   140    1
    12   138   139    1
    13    82    81    1
    14    81    80    1
    15    81    83    1
    16    77    80    1
    17    77    76    1
    18   141   142    1
    19    84    85    1
    20   128   127    2
    21   124   123    2
    22   142   143    1
    23   142   145    1
    24     9     7   ar
    25    85    86    1
    26    85    88    1
    27   127   126    1
    28   143   144    2
    29    86    87    2
    30   123   122    1
    31   123   125   am
    32     7     8   ar
    33     7     6    1
    34   145   146    1
    35    88    89    1
    36   122   121    1
    37   126   125    1
    38   126   129    1
    39    89    91    1
    40    89    90    1
    41     6     5    1
    42   146   148   ar
    43   146   147   ar
    44   148   150   ar
    45    21    20   ar
    46    68    66    1
    47     5     2    1
    48     1     2    1
    49   147   149   ar
    50   150   151   ar
    51    20    19    1
    52    20    22   ar
    53     2     3    1
    54    66    65    1
    55   115   114    2
    56    19    18    1
    57   107   106    2
    58   149   151   ar
    59    10     3   am
    60    10    11    1
    61    13    12    2
    62   114   113    1
    63     3     4    2
    64    65    67    1
    65    65    62    1
    66    12    11    1
    67    12    14   am
    68   106   105    1
    69   106   112   am
    70    18    15    1
    71   105   108    1
    72   105   104    1
    73   111   109    1
    74   113   112    1
    75   113   116    1
    76    14    15    1
    77    15    16    1
    78    61    62    1
    79    62    63    1
    80   108   109    1
    81   109   110    1
    82   116   117    1
    83    75    69    1
    84    75    74    1
    85    16    23   am
    86    16    17    2
    87    63    69   am
    88    63    64    2
    89    23    24    1
    90    69    70    1
    91   117   118    1
    92    26    25    2
    93    74    73    1
    94    95    94    2
    95    58    59    2
    96    58    57    1
    97    24    27    1
    98    24    25    1
    99    28    27    1
   100    28    29    1
   101   118   119   ar
   102   118   120   ar
   103    70    73    1
   104    70    71    1
   105   103   102    1
   106    57    56    1
   107    57    60    1
   108    29    30    1
   109    94    93    1
   110   102   100   ar
   111   102   101   ar
   112   100    98   ar
   113    71    72    2
   114   101    99   ar
   115    98    97   ar
   116    93    92    1
   117    93    96    1
   118    30    31    2
   119    99    97   ar
   120    97    96    1
   121    32    31    1
   122    31    33    1
   123    55    53   ar
   124    54    53   ar
   125    53    52    1
   126    44    46   ar
   127    44    41   ar
   128    46    47   ar
   129    51    50    2
   130    52    49    1
   131    38    39    1
   132    38    35    1
   133    41    39   ar
   134    41    43   ar
   135    37    36    2
   136    50    49    1
   137    39    40   ar
   138    47    45   ar
   139    35    36    1
   140    35    34    1
   141    49    48    1
   142    43    45   ar
   143    43    42   ar
   144    40    42   ar
