@<TRIPOS>MOLECULE
tmp/2uyqA00.pdb
 125 117 0 0 0
SMALL
GASTEIGER

@<TRIPOS>ATOM
      1  N         -8.2890  -20.2270   -5.9110 N.3     2  GLY2       -0.1225
      2  CA        -8.1760  -20.7810   -7.2460 C.3     2  GLY2        0.1811
      3  C         -9.4520  -20.6580   -8.0520 C.2     2  GLY2        0.2280
      4  O        -10.5410  -20.3970   -7.5150 O.2     2  GLY2       -0.2866
      5  N        -11.0240  -23.0020   -9.7730 N.3     4  THR4       -0.1203
      6  CA       -11.9660  -24.1070   -9.5540 C.3     4  THR4        0.1994
      7  C        -12.8750  -23.8720   -8.3380 C.2     4  THR4        0.2617
      8  O        -14.0700  -24.0830   -8.4360 O.2     4  THR4       -0.2717
      9  CB       -11.2500  -25.4720   -9.4200 C.3     4  THR4        0.1784
     10  OG1      -10.3660  -25.6510  -10.5360 O.3     4  THR4       -0.2211
     11  CG2      -12.2780  -26.6030   -9.4130 C.3     4  THR4        0.0376
     12  N        -12.2940  -23.4300   -7.2180 N.am    5  ALA5       -0.1979
     13  CA       -13.0670  -23.1040   -6.0040 C.3     5  ALA5        0.1597
     14  C        -14.1480  -22.0330   -6.3010 C.2     5  ALA5        0.2287
     15  O        -15.2950  -22.1370   -5.8110 O.2     5  ALA5       -0.2864
     16  CB       -12.1220  -22.6350   -4.9010 C.3     5  ALA5        0.0319
     17  N         -9.2300  -29.6490    2.0100 N.3    85  ALA85      -0.1245
     18  CA        -9.2020  -28.6570    0.9110 C.3    85  ALA85       0.1562
     19  C        -10.5320  -27.9040    0.8340 C.2    85  ALA85       0.2260
     20  O        -11.2230  -27.8850   -0.2140 O.2    85  ALA85      -0.2867
     21  CB        -8.8990  -29.3640   -0.4360 C.3    85  ALA85       0.0290
     22  N        -11.5830  -24.8690    0.6390 N.3    87  GLY87      -0.1225
     23  CA       -11.9040  -23.8580   -0.3800 C.3    87  GLY87       0.1811
     24  C        -12.9890  -22.9000    0.0720 C.2    87  GLY87       0.2280
     25  O        -12.8670  -22.2940    1.1520 O.2    87  GLY87      -0.2866
     26  N         -6.8680  -26.0790    4.5050 N.3   107  ASP107     -0.1225
     27  CA        -6.4990  -25.5570    3.1930 C.3   107  ASP107      0.1805
     28  C         -5.2830  -24.6940    3.3590 C.2   107  ASP107      0.2597
     29  O         -4.8030  -24.4770    4.4850 O.2   107  ASP107     -0.2718
     30  CB        -7.6780  -24.7750    2.5370 C.3   107  ASP107      0.1424
     31  CG        -7.7450  -24.9530    1.0060 C.2   107  ASP107      0.3668
     32  OD1       -6.6820  -24.8410    0.3310 O.co2 107  ASP107     -0.2456
     33  OD2       -8.8490  -25.1900    0.4800 O.co2 107  ASP107     -0.2456
     34  N         -4.7610  -24.2080    2.2350 N.am  108  GLN108     -0.1979
     35  CA        -3.6990  -23.2260    2.2510 C.3   108  GLN108      0.1601
     36  C         -4.1470  -21.9470    3.0070 C.2   108  GLN108      0.2287
     37  O         -5.3480  -21.5900    2.9770 O.2   108  GLN108     -0.2864
     38  CB        -3.2980  -22.9000    0.8010 C.3   108  GLN108      0.0394
     39  CG        -2.9140  -24.1500   -0.0290 C.3   108  GLN108      0.0908
     40  CD        -1.4800  -24.6090    0.1670 C.2   108  GLN108      0.2608
     41  OE1       -0.8550  -24.3590    1.2140 O.2   108  GLN108     -0.2717
     42  NE2       -0.9350  -25.2720   -0.8570 N.am  108  GLN108     -0.0878
     43  N         -6.3010  -19.0360    1.1930 N.3   111  VAL111     -0.1245
     44  CA        -7.6340  -19.4710    0.8200 C.3   111  VAL111      0.1561
     45  C         -8.5120  -19.2920    2.0600 C.2   111  VAL111      0.2260
     46  O         -9.5970  -18.7070    2.0090 O.2   111  VAL111     -0.2867
     47  CB        -7.5700  -20.9690    0.3150 C.3   111  VAL111      0.0252
     48  CG1       -8.9100  -21.6130    0.2490 C.3   111  VAL111      0.0019
     49  CG2       -6.8310  -21.0170   -1.0580 C.3   111  VAL111      0.0019
     50  N         -2.5730  -25.3440    6.0790 N.3   135  ILE135     -0.1231
     51  CA        -1.3920  -26.1560    5.7230 C.3   135  ILE135      0.1692
     52  C         -1.6140  -26.7880    4.3450 C.2   135  ILE135      0.2592
     53  O         -2.7360  -26.9850    3.9310 O.2   135  ILE135     -0.2718
     54  CB        -1.1900  -27.2990    6.7830 C.3   135  ILE135      0.0266
     55  CG1        0.1750  -27.9770    6.6600 C.3   135  ILE135      0.0019
     56  CG2       -2.3450  -28.2890    6.7500 C.3   135  ILE135      0.0020
     57  CD1        1.1200  -27.5280    7.6100 C.3   135  ILE135      0.0001
     58  N         -0.5070  -27.1290    3.6850 N.am  136  ASP136     -0.1960
     59  CA        -0.5150  -27.8650    2.4230 C.3   136  ASP136      0.1840
     60  C         -0.6970  -29.3820    2.6530 C.2   136  ASP136      0.2622
     61  O          0.0940  -30.0080    3.3350 O.2   136  ASP136     -0.2715
     62  CB         0.8240  -27.5640    1.7240 C.3   136  ASP136      0.1450
     63  CG         0.9040  -28.0540    0.2930 C.2   136  ASP136      0.3671
     64  OD1        0.3310  -29.0910   -0.0520 O.co2 136  ASP136     -0.2456
     65  OD2        1.6360  -27.3900   -0.4780 O.co2 136  ASP136     -0.2456
     66  N         -1.7210  -29.9900    2.0420 N.am  137  LEU137     -0.1963
     67  CA        -1.9730  -31.4240    2.2240 C.3   137  LEU137      0.1728
     68  C         -0.9350  -32.3820    1.6490 C.2   137  LEU137      0.2616
     69  O         -0.9830  -33.6010    1.9060 O.2   137  LEU137     -0.2715
     70  CB        -3.3630  -31.8020    1.6810 C.3   137  LEU137      0.0311
     71  CG        -4.6020  -31.3640    2.4480 C.3   137  LEU137      0.0022
     72  CD1       -5.8250  -31.7090    1.6370 C.3   137  LEU137      0.0001
     73  CD2       -4.6290  -32.0750    3.8030 C.3   137  LEU137      0.0001
     74  N         -0.0030  -31.8560    0.8620 N.am  138  ARG138     -0.1977
     75  CA         1.0980  -32.6740    0.3360 C.3   138  ARG138      0.1597
     76  C          2.2670  -32.7150    1.3120 C.2   138  ARG138      0.2287
     77  O          3.2110  -33.5100    1.1490 O.2   138  ARG138     -0.2864
     78  CB         1.5710  -32.1200   -1.0070 C.3   138  ARG138      0.0334
     79  CG         0.4430  -32.0890   -2.0920 C.3   138  ARG138      0.0492
     80  CD         0.9160  -31.2300   -3.2870 C.3   138  ARG138      0.2205
     81  NE         1.2300  -29.8570   -2.8330 N.pl3 138  ARG138     -0.0865
     82  CZ         1.9680  -28.9800   -3.5140 C.cat 138  ARG138      0.5346
     83  NH1        2.4890  -29.2930   -4.6900 N.pl3 138  ARG138      0.1354
     84  NH2        2.1970  -27.7790   -3.0140 N.pl3 138  ARG138      0.1354
     85  N        -13.8940  -33.4310   -1.0750 N.3   161  GLU161     -0.1231
     86  CA       -14.6290  -33.0100   -2.2620 C.3   161  GLU161      0.1699
     87  C        -13.7480  -32.1710   -3.2070 C.2   161  GLU161      0.2593
     88  O        -13.0730  -31.2340   -2.7650 O.2   161  GLU161     -0.2718
     89  CB       -15.8190  -32.1680   -1.7670 C.3   161  GLU161      0.0402
     90  CG       -16.6810  -31.6290   -2.8980 C.3   161  GLU161      0.1161
     91  CD       -17.7570  -30.6550   -2.4040 C.2   161  GLU161      0.3649
     92  OE1      -17.7050  -30.1820   -1.2610 O.co2 161  GLU161     -0.2457
     93  OE2      -18.6460  -30.3660   -3.1930 O.co2 161  GLU161     -0.2457
     94  N        -13.7660  -32.4670   -4.5170 N.am  162  GLY162     -0.1942
     95  CA       -13.0360  -31.6460   -5.4890 C.3   162  GLY162      0.2014
     96  C        -11.5490  -31.5170   -5.2610 C.2   162  GLY162      0.2638
     97  O        -10.9170  -30.4810   -5.5670 O.2   162  GLY162     -0.2714
     98  N        -10.9570  -32.6160   -4.7900 N.am  163  LEU163     -0.1977
     99  CA        -9.5690  -32.5940   -4.3580 C.3   163  LEU163      0.1596
    100  C         -8.6700  -33.5720   -5.1140 C.2   163  LEU163      0.2287
    101  O         -7.6060  -33.2010   -5.5910 O.2   163  LEU163     -0.2864
    102  CB        -9.4860  -32.8610   -2.8310 C.3   163  LEU163      0.0297
    103  CG        -8.0810  -33.0460   -2.2430 C.3   163  LEU163      0.0022
    104  CD1       -7.1920  -31.8080   -2.4390 C.3   163  LEU163      0.0001
    105  CD2       -8.0650  -33.5040   -0.7590 C.3   163  LEU163      0.0001
    106  N         -6.8550  -33.2030   -8.4210 N.3   166  TYR166     -0.1227
    107  CA        -5.8770  -32.1130   -8.4080 C.3   166  TYR166      0.1736
    108  C         -4.6010  -32.4750   -7.6580 C.2   166  TYR166      0.2595
    109  O         -3.7250  -31.6200   -7.5040 O.2   166  TYR166     -0.2718
    110  CB        -6.5250  -30.8090   -7.8550 C.3   166  TYR166      0.0548
    111  CG        -7.7210  -30.3750   -8.6970 C.ar  166  TYR166     -0.0200
    112  CD1       -9.0190  -30.4760   -8.2040 C.ar  166  TYR166     -0.0009
    113  CD2       -7.5410  -29.8550   -9.9850 C.ar  166  TYR166     -0.0009
    114  CE1      -10.1160  -30.1050   -8.9870 C.ar  166  TYR166      0.0417
    115  CE2       -8.6270  -29.4620  -10.7640 C.ar  166  TYR166      0.0417
    116  CZ        -9.9120  -29.5880  -10.2530 C.ar  166  TYR166      0.1957
    117  OH       -10.9950  -29.2100  -11.0240 O.3   166  TYR166     -0.2866
    118  N         -4.4710  -33.7500   -7.2530 N.am  167  LEU167     -0.1980
    119  CA        -3.3060  -34.2920   -6.5470 C.3   167  LEU167      0.1596
    120  C         -2.6720  -35.3650   -7.4020 C.2   167  LEU167      0.2287
    121  O         -3.4050  -36.1270   -8.0230 O.2   167  LEU167     -0.2864
    122  CB        -3.7320  -34.9690   -5.2350 C.3   167  LEU167      0.0297
    123  CG        -4.2480  -34.0520   -4.1110 C.3   167  LEU167      0.0022
    124  CD1       -4.6580  -34.9220   -2.9780 C.3   167  LEU167      0.0001
    125  CD2       -3.0630  -33.1050   -3.7290 C.3   167  LEU167      0.0001
@<TRIPOS>BOND
     1   117   116    1
     2   115   116   ar
     3   115   113   ar
     4    10     9    1
     5   116   114   ar
     6   113   111   ar
     7     5     6    1
     8     6     9    1
     9     6     7    1
    10     9    11    1
    11   114   112   ar
    12   111   112   ar
    13   111   110    1
    14     8     7    2
    15   106   107    1
    16   107   110    1
    17   107   108    1
    18     7    12   am
    19     3     4    2
    20     3     2    1
    21   121   120    2
    22   108   109    2
    23   108   118   am
    24   120   119    1
    25   118   119    1
    26     2     1    1
    27    12    13    1
    28   119   122    1
    29    14    13    1
    30    14    15    2
    31    13    16    1
    32   101   100    2
    33    97    96    2
    34    95    96    1
    35    95    94    1
    36    96    98   am
    37   122   123    1
    38   100    99    1
    39    98    99    1
    40    83    82    1
    41    94    87   am
    42    99   102    1
    43   123   125    1
    44   123   124    1
    45    82    84    1
    46    82    81    2
    47    80    81    1
    48    80    79    1
    49    87    88    2
    50    87    86    1
    51    93    91   ar
    52    90    91    1
    53    90    89    1
    54   102   103    1
    55   104   103    1
    56    91    92   ar
    57    86    89    1
    58    86    85    1
    59   103   105    1
    60    79    78    1
    61    49    47    1
    62    78    75    1
    63    42    40   am
    64    65    63   ar
    65    21    18    1
    66    23    24    1
    67    23    22    1
    68    20    19    2
    69    64    63   ar
    70    39    40    1
    71    39    38    1
    72    24    25    2
    73    40    41    2
    74    48    47    1
    75    63    62    1
    76    47    44    1
    77    32    31   ar
    78    75    74    1
    79    75    76    1
    80    33    31   ar
    81    38    35    1
    82    44    43    1
    83    44    45    1
    84    19    18    1
    85    74    68   am
    86    18    17    1
    87    31    30    1
    88    77    76    2
    89    72    71    1
    90    68    69    2
    91    68    67    1
    92    70    67    1
    93    70    71    1
    94    62    59    1
    95    46    45    2
    96    66    67    1
    97    66    60   am
    98    34    35    1
    99    34    28   am
   100    35    36    1
   101    59    60    1
   102    59    58    1
   103    71    73    1
   104    30    27    1
   105    60    61    2
   106    37    36    2
   107    27    28    1
   108    27    26    1
   109    28    29    2
   110    58    52   am
   111    53    52    2
   112    52    51    1
   113    51    50    1
   114    51    54    1
   115    55    54    1
   116    55    57    1
   117    56    54    1
