@<TRIPOS>MOLECULE
tmp/2uytA01.pdb
 176 166 0 0 0
SMALL
GASTEIGER

@<TRIPOS>ATOM
      1  N        -13.0380    8.2390   25.5470 N.3     9  ASP9       -0.1239
      2  CA       -13.7460    7.0270   25.1110 C.3     9  ASP9        0.1674
      3  C        -15.0300    7.4710   24.4370 C.2     9  ASP9        0.2266
      4  O        -15.9480    7.9840   25.0890 O.2     9  ASP9       -0.2867
      5  CB       -14.0480    6.0880   26.3050 C.3     9  ASP9        0.1410
      6  CG       -14.9580    4.9050   25.9210 C.2     9  ASP9        0.3668
      7  OD1      -14.8390    4.3580   24.8200 O.co2   9  ASP9       -0.2456
      8  OD2      -15.7910    4.5120   26.7590 O.co2   9  ASP9       -0.2456
      9  N        -18.2500    6.2590   22.4720 N.3    11  GLY11      -0.1210
     10  CA       -19.1310    5.1750   22.0410 C.3    11  GLY11       0.1956
     11  C        -20.2050    5.7230   21.1370 C.2    11  GLY11       0.2612
     12  O        -20.3340    6.9350   20.9920 O.2    11  GLY11      -0.2717
     13  N        -21.0080    4.8380   20.5490 N.am   12  ALA12      -0.1965
     14  CA       -22.1170    5.2660   19.6950 C.3    12  ALA12       0.1728
     15  C        -23.1620    6.0660   20.4500 C.2    12  ALA12       0.2617
     16  O        -23.8180    6.9200   19.8530 O.2    12  ALA12      -0.2715
     17  CB       -22.7570    4.0680   19.0060 C.3    12  ALA12       0.0334
     18  N        -23.3280    5.7930   21.7480 N.am   13  SER13      -0.1936
     19  CA       -24.3940    6.4760   22.5150 C.3    13  SER13       0.2055
     20  C        -23.9080    7.6480   23.3690 C.2    13  SER13       0.2643
     21  O        -24.7210    8.4880   23.7980 O.2    13  SER13      -0.2714
     22  CB       -25.1650    5.4800   23.3920 C.3    13  SER13       0.2130
     23  OG       -24.3510    4.9790   24.4570 O.3    13  SER13      -0.2179
     24  N        -22.6050    7.7090   23.6440 N.am   14  SER14      -0.1949
     25  CA       -22.0320    8.7930   24.4430 C.3    14  SER14       0.1924
     26  C        -20.5210    8.8840   24.2930 C.2    14  SER14       0.2314
     27  O        -19.8710    7.8830   24.0000 O.2    14  SER14      -0.2863
     28  CB       -22.3640    8.5780   25.9180 C.3    14  SER14       0.2116
     29  OG       -22.4790    9.8130   26.5860 O.3    14  SER14      -0.2180
     30  N        -16.9470   10.3770   26.4730 N.3    16  ARG16      -0.1245
     31  CA       -16.4910   10.7130   27.8100 C.3    16  ARG16       0.1563
     32  C        -14.9980   11.0500   27.8210 C.2    16  ARG16       0.2260
     33  O        -14.2150   10.4230   27.1070 O.2    16  ARG16      -0.2867
     34  CB       -16.8780    9.6070   28.8020 C.3    16  ARG16       0.0307
     35  CG       -16.2290    8.2430   28.5500 C.3    16  ARG16       0.0489
     36  CD       -17.2400    7.0780   28.5980 C.3    16  ARG16       0.2205
     37  NE       -17.8380    6.8330   27.2820 N.pl3  16  ARG16      -0.0865
     38  CZ       -18.7310    5.8820   27.0220 C.cat  16  ARG16       0.5346
     39  NH1      -19.1470    5.0630   27.9730 N.pl3  16  ARG16       0.1354
     40  NH2      -19.2050    5.7370   25.7980 N.pl3  16  ARG16       0.1354
     41  N        -18.7300   14.4420   30.1270 N.3    36  ARG36      -0.1245
     42  CA       -19.5740   13.4600   29.4340 C.3    36  ARG36       0.1563
     43  C        -20.4300   14.2270   28.4490 C.2    36  ARG36       0.2260
     44  O        -20.9430   15.3080   28.7800 O.2    36  ARG36      -0.2867
     45  CB       -20.4630   12.7340   30.4490 C.3    36  ARG36       0.0307
     46  CG       -21.5630   11.8140   29.8860 C.3    36  ARG36       0.0489
     47  CD       -21.0490   10.4460   29.4200 C.3    36  ARG36       0.2205
     48  NE       -20.5360    9.6210   30.5230 N.pl3  36  ARG36      -0.0865
     49  CZ       -20.5270    8.2870   30.5370 C.cat  36  ARG36       0.5346
     50  NH1      -21.0220    7.5910   29.5100 N.pl3  36  ARG36       0.1354
     51  NH2      -20.0270    7.6420   31.5960 N.pl3  36  ARG36       0.1354
     52  N        -12.6780    0.5610   20.7970 N.3   236  ASP236     -0.1239
     53  CA       -13.2850    0.5770   22.1520 C.3   236  ASP236      0.1674
     54  C        -13.4310   -0.8370   22.7580 C.2   236  ASP236      0.2266
     55  O        -13.0430   -1.0750   23.9210 O.2   236  ASP236     -0.2867
     56  CB       -14.5950    1.4330   22.1810 C.3   236  ASP236      0.1410
     57  CG       -15.7050    0.8900   21.2830 C.2   236  ASP236      0.3668
     58  OD1      -15.4860   -0.0940   20.5350 O.co2 236  ASP236     -0.2456
     59  OD2      -16.8120    1.4430   21.3730 O.co2 236  ASP236     -0.2456
     60  N        -20.6670   -4.9330   27.0300 N.3   256  SER256     -0.1202
     61  CA       -22.0890   -4.5800   26.8770 C.3   256  SER256      0.2020
     62  C        -22.3440   -3.0660   26.8410 C.2   256  SER256      0.2619
     63  O        -22.3010   -2.3790   27.8690 O.2   256  SER256     -0.2717
     64  CB       -22.8900   -5.2430   27.9970 C.3   256  SER256      0.2103
     65  OG       -24.2820   -5.0550   27.7790 O.3   256  SER256     -0.2182
     66  N        -22.6160   -2.5590   25.6400 N.am  257  GLY257     -0.1942
     67  CA       -23.0300   -1.1790   25.4430 C.3   257  GLY257      0.2014
     68  C        -24.0940   -1.1770   24.3650 C.2   257  GLY257      0.2640
     69  O        -25.0430   -2.0050   24.3670 O.2   257  GLY257     -0.2714
     70  N        -23.9460   -0.2300   23.4410 N.am  258  THR258     -0.1936
     71  CA       -24.7700   -0.2210   22.2260 C.3   258  THR258      0.2028
     72  C        -24.7850   -1.6090   21.5580 C.2   258  THR258      0.2642
     73  O        -25.8560   -2.1330   21.2310 O.2   258  THR258     -0.2714
     74  CB       -24.2610    0.8380   21.2620 C.3   258  THR258      0.1808
     75  OG1      -24.4120    2.1300   21.8740 O.3   258  THR258     -0.2208
     76  CG2      -25.0730    0.8310   19.9740 C.3   258  THR258      0.0379
     77  N        -23.5890   -2.1780   21.3730 N.am  259  TRP259     -0.1973
     78  CA       -23.4020   -3.5490   20.9520 C.3   259  TRP259      0.1640
     79  C        -23.0810   -4.4340   22.1610 C.2   259  TRP259      0.2290
     80  O        -22.4890   -3.9730   23.1450 O.2   259  TRP259     -0.2864
     81  CB       -22.2230   -3.6140   19.9860 C.3   259  TRP259      0.0576
     82  CG       -22.5540   -3.0300   18.6740 C.ar  259  TRP259      0.0006
     83  CD1      -22.3920   -1.7140   18.2790 C.ar  259  TRP259      0.0946
     84  CD2      -23.1260   -3.7230   17.5550 C.ar  259  TRP259      0.0152
     85  NE1      -22.8330   -1.5640   16.9610 N.ar  259  TRP259     -0.2442
     86  CE2      -23.2960   -2.7820   16.5110 C.ar  259  TRP259      0.0810
     87  CE3      -23.5150   -5.0560   17.3390 C.ar  259  TRP259      0.0012
     88  CZ2      -23.8530   -3.1420   15.2600 C.ar  259  TRP259      0.0191
     89  CZ3      -24.0540   -5.4200   16.1120 C.ar  259  TRP259      0.0001
     90  CH2      -24.2210   -4.4670   15.0820 C.ar  259  TRP259      0.0015
     91  N        -27.8970   -3.6270   23.2770 N.3   299  LEU299     -0.1245
     92  CA       -28.8230   -2.6840   23.9070 C.3   299  LEU299      0.1561
     93  C        -29.2440   -1.5250   22.9970 C.2   299  LEU299      0.2260
     94  O        -30.1230   -0.7210   23.3780 O.2   299  LEU299     -0.2867
     95  CB       -28.3090   -2.2030   25.2740 C.3   299  LEU299      0.0270
     96  CG       -28.2860   -3.2700   26.3850 C.3   299  LEU299      0.0019
     97  CD1      -27.3250   -2.8680   27.5230 C.3   299  LEU299      0.0001
     98  CD2      -29.7090   -3.5370   26.9460 C.3   299  LEU299      0.0001
     99  N        -32.8760   -1.4400   22.8280 N.3   302  LEU302     -0.1231
    100  CA       -33.5440   -0.7330   23.9270 C.3   302  LEU302      0.1693
    101  C        -33.3710    0.7840   23.8140 C.2   302  LEU302      0.2591
    102  O        -34.3230    1.5410   24.0350 O.2   302  LEU302     -0.2718
    103  CB       -33.0570   -1.2460   25.2830 C.3   302  LEU302      0.0284
    104  CG       -33.8130   -0.6710   26.4890 C.3   302  LEU302      0.0019
    105  CD1      -35.3500   -0.9480   26.4260 C.3   302  LEU302      0.0001
    106  CD2      -33.1630   -1.1610   27.7850 C.3   302  LEU302      0.0001
    107  N        -32.1730    1.2230   23.4240 N.am  303  GLN303     -0.1979
    108  CA       -31.9170    2.6400   23.1940 C.3   303  GLN303      0.1601
    109  C        -32.9910    3.2210   22.2770 C.2   303  GLN303      0.2287
    110  O        -33.5580    4.2620   22.5680 O.2   303  GLN303     -0.2864
    111  CB       -30.5320    2.8480   22.5890 C.3   303  GLN303      0.0394
    112  CG       -29.3770    2.4530   23.5250 C.3   303  GLN303      0.0908
    113  CD       -28.0160    2.4670   22.8350 C.2   303  GLN303      0.2608
    114  OE1      -27.9300    2.5950   21.6020 O.2   303  GLN303     -0.2717
    115  NE2      -26.9420    2.3340   23.6300 N.am  303  GLN303     -0.0878
    116  N        -34.6870    4.8010   32.9490 N.3   314  LEU314     -0.1231
    117  CA       -34.3050    3.4470   32.5890 C.3   314  LEU314      0.1678
    118  C        -34.2680    2.5170   33.8190 C.2   314  LEU314      0.2434
    119  O        -34.7640    1.3880   33.7330 O.2   314  LEU314     -0.2733
    120  CB       -32.9810    3.4370   31.8060 C.3   314  LEU314      0.0284
    121  CG       -32.3410    2.0650   31.5840 C.3   314  LEU314      0.0019
    122  CD1      -33.2740    1.1030   30.8210 C.3   314  LEU314      0.0001
    123  CD2      -31.0020    2.2040   30.8760 C.3   314  LEU314      0.0001
    124  N        -33.6490    2.9550   34.9390 N.am  315  PRO315     -0.2729
    125  CA       -33.7290    2.0930   36.1280 C.3   315  PRO315      0.1401
    126  C        -35.1610    1.6860   36.5040 C.2   315  PRO315      0.2269
    127  O        -35.4110    0.5330   36.8640 O.2   315  PRO315     -0.2865
    128  CB       -33.0640    2.9480   37.2150 C.3   315  PRO315      0.0296
    129  CG       -32.0030    3.6930   36.4280 C.3   315  PRO315      0.0237
    130  CD       -32.7770    4.1240   35.1910 C.3   315  PRO315      0.0939
    131  N        -36.3320   -1.0460   34.1030 N.3   318  ILE318     -0.1245
    132  CA       -35.7300   -2.3550   34.3990 C.3   318  ILE318      0.1561
    133  C        -36.4560   -2.9770   35.5840 C.2   318  ILE318      0.2260
    134  O        -36.7910   -4.1570   35.5480 O.2   318  ILE318     -0.2867
    135  CB       -34.2070   -2.2580   34.6350 C.3   318  ILE318      0.0252
    136  CG1      -33.5400   -1.8730   33.3160 C.3   318  ILE318      0.0019
    137  CG2      -33.6160   -3.5940   35.1460 C.3   318  ILE318      0.0019
    138  CD1      -32.0940   -1.3440   33.4630 C.3   318  ILE318      0.0001
    139  N        -18.9280   -2.6850   30.7980 N.3   400  GLY400     -0.1210
    140  CA       -19.6460   -1.6730   30.0070 C.3   400  GLY400      0.1956
    141  C        -20.8820   -1.1330   30.6940 C.2   400  GLY400      0.2612
    142  O        -21.2730   -1.6130   31.7800 O.2   400  GLY400     -0.2717
    143  N        -21.5160   -0.1260   30.0950 N.am  401  GLY401     -0.1942
    144  CA       -22.7360    0.4230   30.6930 C.3   401  GLY401      0.2014
    145  C        -23.7910   -0.6290   30.9630 C.2   401  GLY401      0.2639
    146  O        -24.5450   -0.4990   31.9300 O.2   401  GLY401     -0.2714
    147  N        -23.8590   -1.6390   30.0920 N.am  402  GLY402     -0.1954
    148  CA       -24.8520   -2.7150   30.1850 C.3   402  GLY402      0.1869
    149  C        -24.7040   -3.5470   31.4460 C.2   402  GLY402      0.2309
    150  O        -25.6500   -4.2290   31.8620 O.2   402  GLY402     -0.2863
    151  N        -24.5320   -2.5840   34.3190 N.3   404  GLN404     -0.1231
    152  CA       -25.3700   -1.9720   35.3630 C.3   404  GLN404      0.1698
    153  C        -26.8020   -2.5250   35.3820 C.2   404  GLN404      0.2592
    154  O        -27.5550   -2.2700   36.3120 O.2   404  GLN404     -0.2718
    155  CB       -25.4210   -0.4650   35.1780 C.3   404  GLN404      0.0381
    156  CG       -24.0090    0.1810   35.2630 C.3   404  GLN404      0.0905
    157  CD       -23.9850    1.6380   34.8000 C.2   404  GLN404      0.2608
    158  OE1      -24.1120    1.9300   33.6030 O.2   404  GLN404     -0.2717
    159  NE2      -23.8050    2.5600   35.7500 N.am  404  GLN404     -0.0878
    160  N        -27.1470   -3.2910   34.3470 N.am  405  ASN405     -0.1974
    161  CA       -28.4910   -3.8630   34.2320 C.3   405  ASN405      0.1688
    162  C        -28.4900   -5.1840   34.9750 C.2   405  ASN405      0.2292
    163  O        -28.0940   -6.2120   34.4190 O.2   405  ASN405     -0.2864
    164  CB       -28.8490   -4.0540   32.7490 C.3   405  ASN405      0.1181
    165  CG       -30.2890   -4.4680   32.5450 C.2   405  ASN405      0.2629
    166  OD1      -30.8520   -5.2120   33.3540 O.2   405  ASN405     -0.2716
    167  ND2      -30.8830   -4.0230   31.4400 N.am  405  ASN405     -0.0877
    168  N        -16.9140    1.2820   33.2780 N.3   426  GLU426     -0.1245
    169  CA       -16.1920    2.0150   32.2380 C.3   426  GLU426      0.1567
    170  C        -14.9180    1.2830   31.8350 C.2   426  GLU426      0.2260
    171  O        -13.7850    1.7920   31.9780 O.2   426  GLU426     -0.2867
    172  CB       -15.9380    3.4710   32.6360 C.3   426  GLU426      0.0388
    173  CG       -17.2390    4.3060   32.8530 C.3   426  GLU426      0.1160
    174  CD       -18.2330    4.3560   31.6810 C.2   426  GLU426      0.3649
    175  OE1      -17.8710    4.0030   30.5290 O.co2 426  GLU426     -0.2457
    176  OE2      -19.4210    4.7790   31.8980 O.co2 426  GLU426     -0.2457
@<TRIPOS>BOND
     1    90    88   ar
     2    90    89   ar
     3    88    86   ar
     4    89    87   ar
     5    86    85   ar
     6    86    84   ar
     7    85    83   ar
     8    87    84   ar
     9    84    82   ar
    10    83    82   ar
    11    82    81    1
    12    17    14    1
    13    14    15    1
    14    14    13    1
    15    16    15    2
    16    76    74    1
    17    81    78    1
    18    15    18   am
    19    58    57   ar
    20    13    11   am
    21    52    53    1
    22    78    77    1
    23    78    79    1
    24    12    11    2
    25    11    10    1
    26    73    72    2
    27    74    75    1
    28    74    71    1
    29    57    59   ar
    30    57    56    1
    31    77    72   am
    32    72    71    1
    33   114   113    2
    34    18    19    1
    35    10     9    1
    36    53    56    1
    37    53    54    1
    38    79    80    2
    39    71    70    1
    40   109   110    2
    41   109   108    1
    42    19    20    1
    43    19    22    1
    44   111   108    1
    45   111   112    1
    46    54    55    2
    47    99   100    1
    48   113   112    1
    49   113   115   am
    50    93    94    2
    51    93    92    1
    52   108   107    1
    53    91    92    1
    54    20    24   am
    55    20    21    2
    56    22    23    1
    57   107   101   am
    58    70    68   am
    59    24    25    1
    60   101   100    1
    61   101   102    2
    62    92    95    1
    63   100   103    1
    64    27    26    2
    65    26    25    1
    66    68    69    2
    67    68    67    1
    68     3     4    2
    69     3     2    1
    70    25    28    1
    71     7     6   ar
    72     2     1    1
    73     2     5    1
    74    95    96    1
    75   103   104    1
    76    67    66    1
    77    66    62   am
    78    40    38    1
    79    28    29    1
    80     6     5    1
    81     6     8   ar
    82    96    98    1
    83    96    97    1
    84   105   104    1
    85    30    31    1
    86   104   106    1
    87    62    61    1
    88    62    63    2
    89    61    60    1
    90    61    64    1
    91    38    37    2
    92    38    39    1
    93    33    32    2
    94    37    36    1
    95    65    64    1
    96    31    32    1
    97    31    34    1
    98    43    44    2
    99    43    42    1
   100    35    36    1
   101    35    34    1
   102    47    46    1
   103    47    48    1
   104    42    41    1
   105    42    45    1
   106    50    49    1
   107    46    45    1
   108   140   141    1
   109   140   139    1
   110   147   148    1
   111   147   145   am
   112   143   144    1
   113   143   141   am
   114   148   149    1
   115    48    49    2
   116   175   174   ar
   117    49    51    1
   118   144   145    1
   119   141   142    2
   120   122   121    1
   121   123   121    1
   122   145   146    2
   123   167   165   am
   124   149   150    2
   125   121   120    1
   126   174   176   ar
   127   174   173    1
   128   120   117    1
   129   170   171    2
   130   170   169    1
   131   169   172    1
   132   169   168    1
   133   165   164    1
   134   165   166    2
   135   117   116    1
   136   117   118    1
   137   172   173    1
   138   164   161    1
   139   136   138    1
   140   136   135    1
   141   158   157    2
   142   119   118    2
   143   118   124   am
   144   131   132    1
   145   161   160    1
   146   161   162    1
   147   151   152    1
   148   160   153   am
   149   132   135    1
   150   132   133    1
   151   163   162    2
   152   135   137    1
   153   157   156    1
   154   157   159   am
   155   124   130    1
   156   124   125    1
   157   155   156    1
   158   155   152    1
   159   130   129    1
   160   152   153    1
   161   153   154    2
   162   134   133    2
   163   125   126    1
   164   125   128    1
   165   129   128    1
   166   126   127    2
