@<TRIPOS>MOLECULE
tmp/2uytA00.pdb
 143 139 0 0 0
SMALL
GASTEIGER

@<TRIPOS>ATOM
      1  N        -18.2500    6.2590   22.4720 N.3    11  GLY11      -0.1210
      2  CA       -19.1310    5.1750   22.0410 C.3    11  GLY11       0.1956
      3  C        -20.2050    5.7230   21.1370 C.2    11  GLY11       0.2611
      4  O        -20.3340    6.9350   20.9920 O.2    11  GLY11      -0.2717
      5  N        -21.0080    4.8380   20.5490 N.am   12  ALA12      -0.1979
      6  CA       -22.1170    5.2660   19.6950 C.3    12  ALA12       0.1597
      7  C        -23.1620    6.0660   20.4500 C.2    12  ALA12       0.2287
      8  O        -23.8180    6.9200   19.8530 O.2    12  ALA12      -0.2864
      9  CB       -22.7570    4.0680   19.0060 C.3    12  ALA12       0.0319
     10  N        -15.6700    3.6530   18.8960 N.3    81  TRP81      -0.1227
     11  CA       -16.3260    2.5520   18.1950 C.3    81  TRP81       0.1737
     12  C        -15.5340    2.2470   16.9010 C.2    81  TRP81       0.2596
     13  O        -14.8800    3.1220   16.3140 O.2    81  TRP81      -0.2718
     14  CB       -17.8060    2.8820   17.8800 C.3    81  TRP81       0.0564
     15  CG       -17.9660    3.9250   16.8180 C.ar   81  TRP81       0.0003
     16  CD1      -18.1300    3.7150   15.4730 C.ar   81  TRP81       0.0946
     17  CD2      -17.9510    5.3550   17.0030 C.ar   81  TRP81       0.0152
     18  NE1      -18.1900    4.9270   14.8120 N.ar   81  TRP81      -0.2442
     19  CE2      -18.0770    5.9440   15.7220 C.ar   81  TRP81       0.0810
     20  CE3      -17.7760    6.1940   18.1170 C.ar   81  TRP81       0.0012
     21  CZ2      -18.0940    7.3330   15.5240 C.ar   81  TRP81       0.0191
     22  CZ3      -17.8060    7.6060   17.9250 C.ar   81  TRP81       0.0001
     23  CH2      -17.9610    8.1490   16.6300 C.ar   81  TRP81       0.0015
     24  N        -15.5800    0.9820   16.4960 N.am   82  GLY82      -0.1942
     25  CA       -14.7890    0.5080   15.3590 C.3    82  GLY82       0.2014
     26  C        -15.3520    0.8760   14.0050 C.2    82  GLY82       0.2638
     27  O        -16.3030    1.6600   13.9110 O.2    82  GLY82      -0.2714
     28  N        -14.6710    0.3750   12.9680 N.am   83  VAL83      -0.1977
     29  CA       -15.1460    0.3450   11.5630 C.3    83  VAL83       0.1596
     30  C        -15.1570    1.6960   10.8150 C.2    83  VAL83       0.2287
     31  O        -14.7290    1.7780    9.6510 O.2    83  VAL83      -0.2864
     32  CB       -16.5490   -0.4090   11.4560 C.3    83  VAL83       0.0276
     33  CG1      -17.1840   -0.2860   10.0940 C.3    83  VAL83       0.0022
     34  CG2      -16.3870   -1.8950   11.8080 C.3    83  VAL83       0.0022
     35  N        -21.6380    3.8190   10.4310 N.3   101  TYR101     -0.1241
     36  CA       -21.8550    2.4370   10.0290 C.3   101  TYR101      0.1605
     37  C        -23.3310    2.0250    9.9320 C.2   101  TYR101      0.2264
     38  O        -23.6330    1.0240    9.2910 O.2   101  TYR101     -0.2867
     39  CB       -21.1120    1.4790   10.9620 C.3   101  TYR101      0.0534
     40  CG       -21.5970    1.4640   12.3920 C.ar  101  TYR101     -0.0201
     41  CD1      -22.6490    0.6260   12.7670 C.ar  101  TYR101     -0.0009
     42  CD2      -20.9870    2.2550   13.3850 C.ar  101  TYR101     -0.0009
     43  CE1      -23.0970    0.5860   14.0740 C.ar  101  TYR101      0.0417
     44  CE2      -21.4460    2.2230   14.7060 C.ar  101  TYR101      0.0417
     45  CZ       -22.5130    1.3780   15.0370 C.ar  101  TYR101      0.1957
     46  OH       -22.9720    1.3080   16.3450 O.3   101  TYR101     -0.2866
     47  N        -20.0140   -8.5410    8.6390 N.3   131  LEU131     -0.1245
     48  CA       -21.0080   -7.5350    9.0190 C.3   131  LEU131      0.1561
     49  C        -21.1940   -6.6590    7.8040 C.2   131  LEU131      0.2260
     50  O        -20.2060   -6.2310    7.1970 O.2   131  LEU131     -0.2867
     51  CB       -20.5500   -6.6760   10.1920 C.3   131  LEU131      0.0270
     52  CG       -20.0540   -7.3700   11.4630 C.3   131  LEU131      0.0019
     53  CD1      -19.5510   -6.4120   12.5360 C.3   131  LEU131      0.0001
     54  CD2      -21.1070   -8.3120   12.0460 C.3   131  LEU131      0.0001
     55  N        -21.8380   -3.6950    7.2860 N.3   133  PHE133     -0.1241
     56  CA       -21.2730   -2.3500    7.4110 C.3   133  PHE133      0.1605
     57  C        -19.7670   -2.3520    7.6730 C.2   133  PHE133      0.2264
     58  O        -19.2220   -1.3070    7.9990 O.2   133  PHE133     -0.2867
     59  CB       -22.0160   -1.5710    8.5130 C.3   133  PHE133      0.0534
     60  CG       -22.0840   -2.3170    9.8090 C.ar  133  PHE133     -0.0203
     61  CD1      -20.9950   -2.3370   10.6810 C.ar  133  PHE133     -0.0042
     62  CD2      -23.2390   -3.0330   10.1510 C.ar  133  PHE133     -0.0042
     63  CE1      -21.0500   -3.0550   11.8780 C.ar  133  PHE133     -0.0003
     64  CE2      -23.3020   -3.7600   11.3500 C.ar  133  PHE133     -0.0003
     65  CZ       -22.2050   -3.7840   12.2050 C.ar  133  PHE133     -0.0000
     66  N        -10.8040   -4.1960   12.5660 N.3   180  THR180     -0.1218
     67  CA       -12.2660   -4.1190   12.4070 C.3   180  THR180      0.1862
     68  C        -12.7150   -3.8530   10.9690 C.2   180  THR180      0.2287
     69  O        -13.8820   -4.0840   10.6360 O.2   180  THR180     -0.2866
     70  CB       -12.9440   -3.0920   13.3490 C.3   180  THR180      0.1770
     71  OG1      -12.6420   -1.7540   12.9440 O.3   180  THR180     -0.2211
     72  CG2      -12.5500   -3.2830   14.8270 C.3   180  THR180      0.0375
     73  N         -9.6490    0.5500   19.2850 N.3   235  HIS235     -0.1226
     74  CA       -10.9740   -0.0080   19.1660 C.3   235  HIS235      0.1752
     75  C        -11.5520   -0.1120   20.5680 C.2   235  HIS235      0.2596
     76  O        -10.9650   -0.7640   21.4120 O.2   235  HIS235     -0.2718
     77  CB       -10.9000   -1.3770   18.5010 C.3   235  HIS235      0.0759
     78  CG       -12.2400   -2.0140   18.3130 C.ar  235  HIS235      0.0818
     79  ND1      -12.3880   -3.3790   18.1580 N.ar  235  HIS235     -0.2268
     80  CD2      -13.4790   -1.4810   18.2340 C.ar  235  HIS235      0.1154
     81  CE1      -13.6710   -3.6540   18.0000 C.ar  235  HIS235      0.1986
     82  NE2      -14.3520   -2.5220   18.0480 N.ar  235  HIS235     -0.2212
     83  N        -12.6780    0.5610   20.7970 N.am  236  ASP236     -0.1960
     84  CA       -13.2850    0.5770   22.1520 C.3   236  ASP236      0.1840
     85  C        -13.4310   -0.8370   22.7580 C.2   236  ASP236      0.2622
     86  O        -13.0430   -1.0750   23.9210 O.2   236  ASP236     -0.2715
     87  CB       -14.5950    1.4330   22.1810 C.3   236  ASP236      0.1450
     88  CG       -15.7050    0.8900   21.2830 C.2   236  ASP236      0.3671
     89  OD1      -15.4860   -0.0940   20.5350 O.co2 236  ASP236     -0.2456
     90  OD2      -16.8120    1.4430   21.3730 O.co2 236  ASP236     -0.2456
     91  N        -13.8940   -1.7900   21.9590 N.am  237  THR237     -0.1951
     92  CA       -13.9720   -3.1770   22.4390 C.3   237  THR237      0.1897
     93  C        -12.6120   -3.7780   22.8680 C.2   237  THR237      0.2313
     94  O        -12.5260   -4.5650   23.8240 O.2   237  THR237     -0.2863
     95  CB       -14.6610   -4.0380   21.3730 C.3   237  THR237      0.1794
     96  OG1      -15.9040   -3.4010   21.0530 O.3   237  THR237     -0.2208
     97  CG2      -14.8940   -5.4820   21.8630 C.3   237  THR237      0.0378
     98  N        -23.9460   -0.2300   23.4410 N.3   258  THR258     -0.1203
     99  CA       -24.7700   -0.2210   22.2260 C.3   258  THR258      0.1994
    100  C        -24.7850   -1.6090   21.5580 C.2   258  THR258      0.2617
    101  O        -25.8560   -2.1330   21.2310 O.2   258  THR258     -0.2717
    102  CB       -24.2610    0.8380   21.2620 C.3   258  THR258      0.1784
    103  OG1      -24.4120    2.1300   21.8740 O.3   258  THR258     -0.2211
    104  CG2      -25.0730    0.8310   19.9740 C.3   258  THR258      0.0376
    105  N        -23.5890   -2.1780   21.3730 N.am  259  TRP259     -0.1975
    106  CA       -23.4020   -3.5490   20.9520 C.3   259  TRP259      0.1640
    107  C        -23.0810   -4.4340   22.1610 C.2   259  TRP259      0.2290
    108  O        -22.4890   -3.9730   23.1450 O.2   259  TRP259     -0.2864
    109  CB       -22.2230   -3.6140   19.9860 C.3   259  TRP259      0.0576
    110  CG       -22.5540   -3.0300   18.6740 C.ar  259  TRP259      0.0006
    111  CD1      -22.3920   -1.7140   18.2790 C.ar  259  TRP259      0.0946
    112  CD2      -23.1260   -3.7230   17.5550 C.ar  259  TRP259      0.0152
    113  NE1      -22.8330   -1.5640   16.9610 N.ar  259  TRP259     -0.2442
    114  CE2      -23.2960   -2.7820   16.5110 C.ar  259  TRP259      0.0810
    115  CE3      -23.5150   -5.0560   17.3390 C.ar  259  TRP259      0.0012
    116  CZ2      -23.8530   -3.1420   15.2600 C.ar  259  TRP259      0.0191
    117  CZ3      -24.0540   -5.4200   16.1120 C.ar  259  TRP259      0.0001
    118  CH2      -24.2210   -4.4670   15.0820 C.ar  259  TRP259      0.0015
    119  N        -20.6350   -7.4610   22.7400 N.3   261  LEU261     -0.1245
    120  CA       -19.5450   -8.2150   22.1060 C.3   261  LEU261      0.1561
    121  C        -19.1680   -9.3440   23.0520 C.2   261  LEU261      0.2260
    122  O        -18.6130   -9.1070   24.1200 O.2   261  LEU261     -0.2867
    123  CB       -18.3250   -7.3250   21.8050 C.3   261  LEU261      0.0270
    124  CG       -18.5220   -6.1270   20.8770 C.3   261  LEU261      0.0019
    125  CD1      -19.4290   -6.5020   19.6770 C.3   261  LEU261      0.0001
    126  CD2      -19.0720   -4.9070   21.6430 C.3   261  LEU261      0.0001
    127  N        -10.7330  -10.3890   16.0710 N.3   283  GLU283     -0.1245
    128  CA       -10.3070   -9.0010   16.1170 C.3   283  GLU283      0.1567
    129  C         -8.9420   -8.8680   16.7990 C.2   283  GLU283      0.2260
    130  O         -8.5860   -9.6820   17.6430 O.2   283  GLU283     -0.2867
    131  CB       -11.3740   -8.1570   16.8120 C.3   283  GLU283      0.0388
    132  CG       -12.4810   -7.7130   15.8600 C.3   283  GLU283      0.1160
    133  CD       -13.6340   -6.9800   16.5460 C.2   283  GLU283      0.3649
    134  OE1      -13.6090   -6.7430   17.7760 O.co2 283  GLU283     -0.2457
    135  OE2      -14.6060   -6.6600   15.8350 O.co2 283  GLU283     -0.2457
    136  N        -20.3390  -10.2370   17.2710 N.3   295  ASN295     -0.1240
    137  CA       -21.2340   -9.1030   17.5170 C.3   295  ASN295      0.1653
    138  C        -22.6660   -9.5580   17.7760 C.2   295  ASN295      0.2266
    139  O        -23.2090  -10.4060   17.0380 O.2   295  ASN295     -0.2867
    140  CB       -21.2580   -8.1420   16.3120 C.3   295  ASN295      0.1155
    141  CG       -20.1470   -7.1230   16.3340 C.2   295  ASN295      0.2627
    142  OD1      -18.9990   -7.4540   16.5590 O.2   295  ASN295     -0.2716
    143  ND2      -20.4920   -5.8610   16.0440 N.am  295  ASN295     -0.0877
@<TRIPOS>BOND
     1    50    49    2
     2    55    56    1
     3    56    57    1
     4    56    59    1
     5    57    58    2
     6    49    48    1
     7    59    60    1
     8    47    48    1
     9    48    51    1
    10    38    37    2
    11    31    30    2
    12    60    62   ar
    13    60    61   ar
    14    37    36    1
    15    36    35    1
    16    36    39    1
    17    33    32    1
    18    62    64   ar
    19    51    52    1
    20    69    68    2
    21    61    63   ar
    22    30    29    1
    23    39    40    1
    24    68    67    1
    25    64    65   ar
    26    32    29    1
    27    32    34    1
    28    52    54    1
    29    52    53    1
    30    29    28    1
    31    63    65   ar
    32    40    41   ar
    33    40    42   ar
    34    67    66    1
    35    67    70    1
    36    41    43   ar
    37    71    70    1
    38    28    26   am
    39    70    72    1
    40    42    44   ar
    41    27    26    2
    42    26    25    1
    43    43    45   ar
    44    44    45   ar
    45    18    16   ar
    46    18    19   ar
    47    45    46    1
    48   118   116   ar
    49   118   117   ar
    50   116   114   ar
    51    25    24    1
    52    16    15   ar
    53    21    19   ar
    54    21    23   ar
    55    19    17   ar
    56   135   133   ar
    57   132   133    1
    58   132   131    1
    59   143   141   am
    60   127   128    1
    61   117   115   ar
    62   128   129    1
    63   128   131    1
    64   140   141    1
    65   140   137    1
    66    13    12    2
    67   141   142    2
    68    24    12   am
    69   114   113   ar
    70   114   112   ar
    71   133   134   ar
    72    23    22   ar
    73   129   130    2
    74    15    17   ar
    75    15    14    1
    76    12    11    1
    77   113   111   ar
    78    17    20   ar
    79   139   138    2
    80   136   137    1
    81   115   112   ar
    82   137   138    1
    83   112   110   ar
    84    14    11    1
    85    22    20   ar
    86    81    82   ar
    87    81    79   ar
    88    82    80   ar
    89    79    78   ar
    90    11    10    1
    91    80    78   ar
    92   111   110   ar
    93    78    77    1
    94    77    74    1
    95   110   109    1
    96     9     6    1
    97    74    73    1
    98    74    75    1
    99   125   124    1
   100     6     7    1
   101     6     5    1
   102     8     7    2
   103   104   102    1
   104   109   106    1
   105    89    88   ar
   106     5     3   am
   107    75    83   am
   108    75    76    2
   109    83    84    1
   110   124   126    1
   111   124   123    1
   112   106   105    1
   113   106   107    1
   114     4     3    2
   115    96    95    1
   116     3     2    1
   117   101   100    2
   118   102   103    1
   119   102    99    1
   120    88    90   ar
   121    88    87    1
   122   105   100   am
   123    95    97    1
   124    95    92    1
   125   100    99    1
   126   123   120    1
   127    91    92    1
   128    91    85   am
   129     2     1    1
   130   120   119    1
   131   120   121    1
   132    84    87    1
   133    84    85    1
   134   107   108    2
   135    99    98    1
   136    92    93    1
   137    85    86    2
   138    93    94    2
   139   121   122    2
