@<TRIPOS>MOLECULE
tmp/2uywB00.pdb
 157 151 0 0 0
SMALL
GASTEIGER

@<TRIPOS>ATOM
      1  N        -15.5970   21.5360   52.2220 N.3    10  ASN10      -0.1240
      2  CA       -15.2690   22.7690   51.5060 C.3    10  ASN10       0.1653
      3  C        -16.0720   22.8890   50.2070 C.2    10  ASN10       0.2266
      4  O        -16.9050   22.0190   49.8880 O.2    10  ASN10      -0.2867
      5  CB       -13.7500   22.9400   51.3380 C.3    10  ASN10       0.1155
      6  CG       -13.1430   21.9590   50.3460 C.2    10  ASN10       0.2627
      7  OD1      -13.8370   21.3790   49.5360 O.2    10  ASN10      -0.2716
      8  ND2      -11.8320   21.7710   50.4290 N.am   10  ASN10      -0.0877
      9  N        -15.2970   22.5710   47.1500 N.3    12  LEU12      -0.1245
     10  CA       -14.9610   21.5150   46.1930 C.3    12  LEU12       0.1561
     11  C        -15.7150   20.2290   46.5020 C.2    12  LEU12       0.2260
     12  O        -15.7890   19.3330   45.6440 O.2    12  LEU12      -0.2867
     13  CB       -13.4410   21.2340   46.1880 C.3    12  LEU12       0.0270
     14  CG       -12.5480   22.3720   45.6730 C.3    12  LEU12       0.0019
     15  CD1      -11.0570   22.1910   46.0880 C.3    12  LEU12       0.0001
     16  CD2      -12.6880   22.5170   44.1460 C.3    12  LEU12       0.0001
     17  N        -14.7960   18.4200   49.2460 N.3    14  SER14      -0.1217
     18  CA       -13.8760   17.6100   50.0930 C.3    14  SER14       0.1889
     19  C        -14.3760   17.5650   51.5260 C.2    14  SER14       0.2288
     20  O        -15.0750   18.4680   51.9610 O.2    14  SER14      -0.2866
     21  CB       -12.4530   18.1820   50.0690 C.3    14  SER14       0.2089
     22  OG       -11.9680   18.1910   48.7360 O.3    14  SER14      -0.2183
     23  N         -8.5840   13.3520   55.8110 N.3    31  TYR31      -0.1241
     24  CA        -9.0740   14.2120   54.7580 C.3    31  TYR31       0.1605
     25  C         -9.4430   13.3810   53.5510 C.2    31  TYR31       0.2264
     26  O         -8.6810   12.4960   53.1310 O.2    31  TYR31      -0.2867
     27  CB        -7.9800   15.2250   54.4100 C.3    31  TYR31       0.0534
     28  CG        -8.4670   16.4590   53.7290 C.ar   31  TYR31      -0.0201
     29  CD1       -8.6920   17.6430   54.4660 C.ar   31  TYR31      -0.0009
     30  CD2       -8.6660   16.4730   52.3410 C.ar   31  TYR31      -0.0009
     31  CE1       -9.1350   18.8180   53.8330 C.ar   31  TYR31       0.0417
     32  CE2       -9.1020   17.6580   51.6840 C.ar   31  TYR31       0.0417
     33  CZ        -9.3350   18.8060   52.4460 C.ar   31  TYR31       0.1957
     34  OH        -9.7790   19.9320   51.8160 O.3    31  TYR31      -0.2866
     35  N        -10.3500   14.1000   49.7080 N.3    33  THR33      -0.1218
     36  CA       -10.4480   15.1650   48.6920 C.3    33  THR33       0.1862
     37  C        -11.3980   14.7170   47.5660 C.2    33  THR33       0.2287
     38  O        -11.3910   13.5480   47.1760 O.2    33  THR33      -0.2866
     39  CB        -9.0740   15.6130   48.1190 C.3    33  THR33       0.1770
     40  OG1       -9.2870   16.6720   47.1680 O.3    33  THR33      -0.2211
     41  CG2       -8.3010   14.4360   47.4330 C.3    33  THR33       0.0375
     42  N        -11.2040   16.1030   44.6400 N.3    35  VAL35      -0.1231
     43  CA       -10.4340   16.3950   43.4270 C.3    35  VAL35       0.1692
     44  C         -8.9760   16.0150   43.5630 C.2    35  VAL35       0.2593
     45  O         -8.4380   15.9860   44.6560 O.2    35  VAL35      -0.2718
     46  CB       -10.5410   17.8940   42.9980 C.3    35  VAL35       0.0266
     47  CG1      -11.9910   18.2530   42.6550 C.3    35  VAL35       0.0020
     48  CG2       -9.9690   18.8360   44.1120 C.3    35  VAL35       0.0020
     49  N         -8.3180   15.7190   42.4370 N.am   36  SER36      -0.1938
     50  CA        -6.8940   15.4710   42.5600 C.3    36  SER36       0.2055
     51  C         -6.1750   15.8500   41.2950 C.2    36  SER36       0.2643
     52  O         -6.8150   16.1340   40.2820 O.2    36  SER36      -0.2714
     53  CB        -6.6270   14.0030   42.9170 C.3    36  SER36       0.2130
     54  OG        -7.0400   13.1690   41.8510 O.3    36  SER36      -0.2179
     55  N         -4.8490   15.8710   41.3540 N.am   37  LEU37      -0.1963
     56  CA        -4.0500   16.1530   40.1440 C.3    37  LEU37       0.1728
     57  C         -3.9960   14.9940   39.1400 C.2    37  LEU37       0.2616
     58  O         -3.9250   15.2320   37.9320 O.2    37  LEU37      -0.2715
     59  CB        -2.6350   16.6000   40.5220 C.3    37  LEU37       0.0311
     60  CG        -2.4900   17.8440   41.4130 C.3    37  LEU37       0.0022
     61  CD1       -1.0680   17.9140   41.9050 C.3    37  LEU37       0.0001
     62  CD2       -2.8250   19.0880   40.6190 C.3    37  LEU37       0.0001
     63  N         -4.0280   13.7500   39.6140 N.am   38  THR38      -0.1951
     64  CA        -3.9760   12.5920   38.6780 C.3    38  THR38       0.1897
     65  C         -5.2520   11.7490   38.6750 C.2    38  THR38       0.2313
     66  O         -6.2400   12.0870   39.3290 O.2    38  THR38      -0.2863
     67  CB        -2.7650   11.6500   38.9440 C.3    38  THR38       0.1794
     68  OG1       -2.9060   10.9980   40.2190 O.3    38  THR38      -0.2208
     69  CG2       -1.4420   12.4090   38.8540 C.3    38  THR38       0.0378
     70  N         -1.0110   12.6170   51.6930 N.3    65  TRP65      -0.1241
     71  CA        -1.8900   11.9570   50.7250 C.3    65  TRP65       0.1605
     72  C         -1.5000   10.4700   50.5570 C.2    65  TRP65       0.2264
     73  O         -0.3270   10.1440   50.3190 O.2    65  TRP65      -0.2867
     74  CB        -1.8350   12.6740   49.3710 C.3    65  TRP65       0.0550
     75  CG        -2.2800   14.1130   49.4700 C.ar   65  TRP65       0.0003
     76  CD1       -1.4930   15.2180   49.3710 C.ar   65  TRP65       0.0946
     77  CD2       -3.6220   14.5840   49.7380 C.ar   65  TRP65       0.0152
     78  NE1       -2.2780   16.3710   49.5190 N.ar   65  TRP65      -0.2442
     79  CE2       -3.5760   15.9990   49.7540 C.ar   65  TRP65       0.0810
     80  CE3       -4.8590   13.9370   49.9470 C.ar   65  TRP65       0.0012
     81  CZ2       -4.7260   16.7980   49.9710 C.ar   65  TRP65       0.0191
     82  CZ3       -5.9900   14.7280   50.1810 C.ar   65  TRP65       0.0001
     83  CH2       -5.9040   16.1520   50.1940 C.ar   65  TRP65       0.0015
     84  N         -2.3740    8.3680   48.2110 N.3    67  PHE67      -0.1227
     85  CA        -2.5350    7.8510   46.8570 C.3    67  PHE67       0.1736
     86  C         -1.6690    8.5880   45.8340 C.2    67  PHE67       0.2596
     87  O         -1.7940    8.3450   44.6100 O.2    67  PHE67      -0.2718
     88  CB        -4.0090    7.9570   46.4410 C.3    67  PHE67       0.0547
     89  CG        -4.5430    9.3640   46.5300 C.ar   67  PHE67      -0.0202
     90  CD1       -4.4820   10.2250   45.4290 C.ar   67  PHE67      -0.0042
     91  CD2       -5.0860    9.8390   47.7220 C.ar   67  PHE67      -0.0042
     92  CE1       -4.9590   11.5380   45.5350 C.ar   67  PHE67      -0.0003
     93  CE2       -5.5670   11.1260   47.8290 C.ar   67  PHE67      -0.0003
     94  CZ        -5.5130   11.9890   46.7330 C.ar   67  PHE67      -0.0000
     95  N         -0.8170    9.4930   46.3300 N.am   68  SER68      -0.1952
     96  CA         0.1360   10.2270   45.4870 C.3    68  SER68       0.1924
     97  C          1.3680   10.6030   46.3100 C.2    68  SER68       0.2314
     98  O          1.3860   10.4040   47.5170 O.2    68  SER68      -0.2863
     99  CB        -0.5040   11.5000   44.9160 C.3    68  SER68       0.2116
    100  OG        -0.5010   12.5100   45.9160 O.3    68  SER68      -0.2180
    101  N          2.3580   13.6420   46.7590 N.3    70  SER70      -0.1217
    102  CA         2.1480   15.0630   47.1280 C.3    70  SER70       0.1889
    103  C          1.9590   15.2370   48.6270 C.2    70  SER70       0.2288
    104  O          1.7210   14.2650   49.3660 O.2    70  SER70      -0.2866
    105  CB         0.9110   15.6190   46.4020 C.3    70  SER70       0.2089
    106  OG         1.0900   15.5190   45.0040 O.3    70  SER70      -0.2183
    107  N         -0.0750   18.3990   51.1330 N.3    72  THR72      -0.1218
    108  CA        -0.7270   19.7230   51.1960 C.3    72  THR72       0.1862
    109  C         -0.7290   20.1950   52.6420 C.2    72  THR72       0.2287
    110  O         -0.9020   19.3760   53.5530 O.2    72  THR72      -0.2866
    111  CB        -2.1830   19.7040   50.6500 C.3    72  THR72       0.1770
    112  OG1       -2.1910   19.2160   49.2970 O.3    72  THR72      -0.2211
    113  CG2       -2.8010   21.1330   50.7100 C.3    72  THR72       0.0375
    114  N         -2.5420   23.3670   55.0890 N.3    74  TRP74      -0.1241
    115  CA        -3.5080   24.4580   55.2070 C.3    74  TRP74       0.1605
    116  C         -3.2230   25.2440   56.4620 C.2    74  TRP74       0.2264
    117  O         -2.8140   24.6740   57.4900 O.2    74  TRP74      -0.2867
    118  CB        -4.9270   23.9180   55.4050 C.3    74  TRP74       0.0550
    119  CG        -5.6310   23.3280   54.1790 C.ar   74  TRP74       0.0003
    120  CD1       -6.6350   23.9070   53.4810 C.ar   74  TRP74       0.0946
    121  CD2       -5.4400   22.0290   53.6310 C.ar   74  TRP74       0.0152
    122  NE1       -7.0980   23.0360   52.5070 N.ar   74  TRP74      -0.2442
    123  CE2       -6.3590   21.8880   52.5640 C.ar   74  TRP74       0.0810
    124  CE3       -4.5690   20.9540   53.9430 C.ar   74  TRP74       0.0012
    125  CZ2       -6.4640   20.7040   51.8030 C.ar   74  TRP74       0.0191
    126  CZ3       -4.6500   19.7740   53.1780 C.ar   74  TRP74       0.0001
    127  CH2       -5.5950   19.6680   52.1080 C.ar   74  TRP74       0.0015
    128  N         -3.9700   27.3180   51.3550 N.3    92  TRP92      -0.1241
    129  CA        -3.2160   26.0690   51.2540 C.3    92  TRP92       0.1605
    130  C         -2.0610   26.1520   50.2640 C.2    92  TRP92       0.2264
    131  O         -2.0890   26.9810   49.3500 O.2    92  TRP92      -0.2867
    132  CB        -4.1500   24.8670   50.9000 C.3    92  TRP92       0.0550
    133  CG        -5.0340   25.0380   49.6340 C.ar   92  TRP92       0.0003
    134  CD1       -6.3570   25.4250   49.5830 C.ar   92  TRP92       0.0946
    135  CD2       -4.6240   24.8380   48.2680 C.ar   92  TRP92       0.0152
    136  NE1       -6.7950   25.4650   48.2540 N.ar   92  TRP92      -0.2442
    137  CE2       -5.7600   25.0850   47.4420 C.ar   92  TRP92       0.0810
    138  CE3       -3.4260   24.4140   47.6630 C.ar   92  TRP92       0.0012
    139  CZ2       -5.7190   24.9600   46.0400 C.ar   92  TRP92       0.0191
    140  CZ3       -3.3840   24.3030   46.2480 C.ar   92  TRP92       0.0001
    141  CH2       -4.5410   24.5580   45.4650 C.ar   92  TRP92       0.0015
    142  N          0.0390   23.1730   47.9770 N.3    94  LEU94      -0.1245
    143  CA         0.0790   21.7810   47.5250 C.3    94  LEU94       0.1561
    144  C          1.4240   21.5580   46.8790 C.2    94  LEU94       0.2260
    145  O          1.7430   22.1590   45.8320 O.2    94  LEU94      -0.2867
    146  CB        -1.0330   21.5210   46.5170 C.3    94  LEU94       0.0270
    147  CG        -1.0300   20.2640   45.6130 C.3    94  LEU94       0.0019
    148  CD1       -0.8060   18.9960   46.3670 C.3    94  LEU94       0.0001
    149  CD2       -2.3370   20.1800   44.7530 C.3    94  LEU94       0.0001
    150  N         -9.3320   27.7070   50.6180 N.3   113  ASN113     -0.1240
    151  CA       -10.4980   26.8340   50.8310 C.3   113  ASN113      0.1653
    152  C        -11.3420   27.4220   51.9750 C.2   113  ASN113      0.2266
    153  O        -10.7980   27.9610   52.9650 O.2   113  ASN113     -0.2867
    154  CB       -10.0930   25.4090   51.2600 C.3   113  ASN113      0.1155
    155  CG        -9.6680   24.4850   50.0930 C.2   113  ASN113      0.2627
    156  OD1       -9.1470   23.4320   50.3720 O.2   113  ASN113     -0.2716
    157  ND2       -9.9720   24.8470   48.8300 N.am  113  ASN113     -0.0877
@<TRIPOS>BOND
     1    58    57    2
     2    65    64    1
     3    65    66    2
     4    64    67    1
     5    64    63    1
     6    69    67    1
     7    67    68    1
     8    57    63   am
     9    57    56    1
    10    56    59    1
    11    56    55    1
    12    52    51    2
    13    59    60    1
    14    62    60    1
    15    51    55   am
    16    51    50    1
    17    60    61    1
    18    54    53    1
    19    49    50    1
    20    49    44   am
    21    50    53    1
    22    47    46    1
    23    46    43    1
    24    46    48    1
    25    43    44    1
    26    43    42    1
    27    44    45    2
    28    16    14    1
    29    87    86    2
    30   149   147    1
    31    99    96    1
    32    99   100    1
    33   106   105    1
    34    90    92   ar
    35    90    89   ar
    36   141   139   ar
    37   141   140   ar
    38    96    97    1
    39    96    95    1
    40    92    94   ar
    41   147   148    1
    42   147   146    1
    43    12    11    2
    44    14    15    1
    45    14    13    1
    46   145   144    2
    47    86    95   am
    48    86    85    1
    49   139   137   ar
    50    13    10    1
    51    10    11    1
    52    10     9    1
    53   140   138   ar
    54    97    98    2
    55   105   102    1
    56    88    89    1
    57    88    85    1
    58   146   143    1
    59    89    91   ar
    60    94    93   ar
    61   101   102    1
    62    85    84    1
    63   144   143    1
    64   102   103    1
    65    40    39    1
    66    38    37    2
    67    41    39    1
    68   137   136   ar
    69   137   135   ar
    70   143   142    1
    71    37    36    1
    72   138   135   ar
    73    91    93   ar
    74    39    36    1
    75   136   134   ar
    76   135   133   ar
    77   103   104    2
    78    36    35    1
    79    22    21    1
    80   157   155   am
    81    17    18    1
    82   112   111    1
    83   131   130    2
    84    76    75   ar
    85    76    78   ar
    86    74    75    1
    87    74    71    1
    88    75    77   ar
    89    78    79   ar
    90     7     6    2
    91   134   133   ar
    92   133   132    1
    93    77    79   ar
    94    77    80   ar
    95    79    81   ar
    96     4     3    2
    97    80    82   ar
    98    81    83   ar
    99    21    18    1
   100   155   156    2
   101   155   154    1
   102    18    19    1
   103    82    83   ar
   104     3     2    1
   105   130   129    1
   106    73    72    2
   107     6     8   am
   108     6     5    1
   109    72    71    1
   110   150   151    1
   111   111   113    1
   112   111   108    1
   113    71    70    1
   114   151   154    1
   115   151   152    1
   116   132   129    1
   117   107   108    1
   118   108   109    1
   119   129   128    1
   120     5     2    1
   121     2     1    1
   122    19    20    2
   123    32    30   ar
   124    32    33   ar
   125   125   127   ar
   126   125   123   ar
   127    34    33    1
   128   152   153    2
   129   127   126   ar
   130    30    28   ar
   131    33    31   ar
   132   122   123   ar
   133   122   120   ar
   134   123   121   ar
   135   109   110    2
   136    26    25    2
   137   126   124   ar
   138   120   119   ar
   139    25    24    1
   140   121   124   ar
   141   121   119   ar
   142    28    27    1
   143    28    29   ar
   144    31    29   ar
   145   119   118    1
   146    27    24    1
   147    24    23    1
   148   114   115    1
   149   115   118    1
   150   115   116    1
   151   116   117    2
