@<TRIPOS>MOLECULE
tmp/2uyyA00.pdb
 223 217 0 0 0
SMALL
GASTEIGER

@<TRIPOS>ATOM
      1  N         35.3390   30.2650  -10.3540 N.3    13  GLY13      -0.1210
      2  CA        35.3090   30.7590   -8.9840 C.3    13  GLY13       0.1956
      3  C         36.5940   30.4270   -8.2610 C.2    13  GLY13       0.2612
      4  O         36.7630   29.3200   -7.7860 O.2    13  GLY13      -0.2717
      5  N         37.5070   31.3870   -8.2000 N.am   14  LEU14      -0.1965
      6  CA        38.8080   31.1610   -7.5950 C.3    14  LEU14       0.1728
      7  C         38.8560   31.8130   -6.1980 C.2    14  LEU14       0.2617
      8  O         39.7350   32.6000   -5.8880 O.2    14  LEU14      -0.2715
      9  CB        39.9110   31.6990   -8.5190 C.3    14  LEU14       0.0311
     10  CG        39.9480   31.0570   -9.9050 C.3    14  LEU14       0.0022
     11  CD1       40.9410   31.7570  -10.8100 C.3    14  LEU14       0.0001
     12  CD2       40.2670   29.5850   -9.7720 C.3    14  LEU14       0.0001
     13  N         37.8890   31.4590   -5.3600 N.am   15  GLY15      -0.1940
     14  CA        37.7930   32.0070   -4.0220 C.3    15  GLY15       0.2014
     15  C         38.6900   31.2990   -3.0230 C.2    15  GLY15       0.2639
     16  O         39.7440   30.7280   -3.3760 O.2    15  GLY15      -0.2714
     17  N         38.2520   31.3400   -1.7650 N.am   16  LEU16      -0.1963
     18  CA        38.9960   30.7570   -0.6640 C.3    16  LEU16       0.1728
     19  C         39.2090   29.2580   -0.9140 C.2    16  LEU16       0.2616
     20  O         40.3310   28.7700   -0.7670 O.2    16  LEU16      -0.2715
     21  CB        38.2630   30.9940    0.6470 C.3    16  LEU16       0.0311
     22  CG        39.0640   31.4770    1.8350 C.3    16  LEU16       0.0022
     23  CD1       39.5830   32.8960    1.6210 C.3    16  LEU16       0.0001
     24  CD2       38.1440   31.3960    3.0240 C.3    16  LEU16       0.0001
     25  N         38.1440   28.5460   -1.3050 N.am   17  MET17      -0.1963
     26  CA        38.2270   27.1130   -1.5910 C.3    17  MET17       0.1736
     27  C         38.7280   26.8300   -3.0030 C.2    17  MET17       0.2617
     28  O         39.5890   25.9670   -3.2230 O.2    17  MET17      -0.2715
     29  CB        36.8630   26.4380   -1.4530 C.3    17  MET17       0.0427
     30  CG        36.2660   26.4680   -0.0450 C.3    17  MET17       0.0599
     31  SD        37.2920   25.6440    1.1850 S.3    17  MET17      -0.1393
     32  CE        36.9290   26.6850    2.5950 C.3    17  MET17       0.0692
     33  N         38.1680   27.5350   -3.9780 N.am   18  GLY18      -0.1955
     34  CA        38.4460   27.2240   -5.3860 C.3    18  GLY18       0.1869
     35  C         39.9260   27.3390   -5.7110 C.2    18  GLY18       0.2309
     36  O         40.5050   26.5280   -6.4650 O.2    18  GLY18      -0.2863
     37  N         38.3230   30.6970  -14.6240 N.3    35  TRP35      -0.1227
     38  CA        37.6140   31.9460  -14.7970 C.3    35  TRP35       0.1737
     39  C         37.1750   32.4230  -13.4430 C.2    35  TRP35       0.2595
     40  O         36.8240   31.6090  -12.5970 O.2    35  TRP35      -0.2718
     41  CB        36.3900   31.7290  -15.6840 C.3    35  TRP35       0.0564
     42  CG        35.5240   32.9240  -15.7650 C.ar   35  TRP35       0.0003
     43  CD1       35.5700   33.9010  -16.7210 C.ar   35  TRP35       0.0946
     44  CD2       34.4700   33.2890  -14.8710 C.ar   35  TRP35       0.0152
     45  NE1       34.6170   34.8670  -16.4630 N.ar   35  TRP35      -0.2442
     46  CE2       33.9290   34.5170  -15.3350 C.ar   35  TRP35       0.0810
     47  CE3       33.9330   32.7080  -13.7240 C.ar   35  TRP35       0.0012
     48  CZ2       32.8780   35.1600  -14.6970 C.ar   35  TRP35       0.0191
     49  CZ3       32.8850   33.3520  -13.0830 C.ar   35  TRP35       0.0001
     50  CH2       32.3700   34.5650  -13.5690 C.ar   35  TRP35       0.0015
     51  N         37.1540   33.7410  -13.2730 N.am   36  ASN36      -0.1960
     52  CA        36.6890   34.3540  -12.0550 C.3    36  ASN36       0.1819
     53  C         36.0540   35.6820  -12.3800 C.2    36  ASN36       0.2621
     54  O         36.5670   36.3970  -13.2190 O.2    36  ASN36      -0.2715
     55  CB        37.8650   34.5840  -11.0910 C.3    36  ASN36       0.1195
     56  CG        37.3930   34.8690   -9.6960 C.2    36  ASN36       0.2630
     57  OD1       36.8050   33.9990   -9.0530 O.2    36  ASN36      -0.2716
     58  ND2       37.5850   36.0980   -9.2380 N.am   36  ASN36      -0.0877
     59  N         34.9760   36.0410  -11.6880 N.am   37  ARG37      -0.1963
     60  CA        34.3250   37.3130  -11.9620 C.3    37  ARG37       0.1729
     61  C         35.3170   38.4720  -11.9130 C.2    37  ARG37       0.2616
     62  O         35.2520   39.3360  -12.7510 O.2    37  ARG37      -0.2715
     63  CB        33.1570   37.5460  -11.0340 C.3    37  ARG37       0.0348
     64  CG        32.3510   38.7770  -11.3600 C.3    37  ARG37       0.0492
     65  CD        31.1790   38.9300  -10.4160 C.3    37  ARG37       0.2205
     66  NE        31.5790   38.7210   -9.0250 N.pl3  37  ARG37      -0.0865
     67  CZ        30.7330   38.6300   -8.0060 C.cat  37  ARG37       0.5346
     68  NH1       29.4180   38.7500   -8.1950 N.pl3  37  ARG37       0.1354
     69  NH2       31.2110   38.4200   -6.7910 N.pl3  37  ARG37       0.1354
     70  N         36.2310   38.4840  -10.9460 N.am   38  THR38      -0.1951
     71  CA        37.3860   39.3990  -10.9690 C.3    38  THR38       0.1897
     72  C         38.5590   38.7460  -11.6750 C.2    38  THR38       0.2313
     73  O         39.1060   37.7340  -11.2000 O.2    38  THR38      -0.2863
     74  CB        37.8140   39.7740   -9.5790 C.3    38  THR38       0.1794
     75  OG1       36.7820   40.5710   -9.0100 O.3    38  THR38      -0.2208
     76  CG2       39.1020   40.5710   -9.6020 C.3    38  THR38       0.0378
     77  N         42.3630   37.6730  -10.0720 N.3    41  LYS41      -0.1245
     78  CA        42.6070   36.4760   -9.2570 C.3    41  LYS41       0.1561
     79  C         43.1260   35.2820  -10.0770 C.2    41  LYS41       0.2260
     80  O         43.6860   34.3380   -9.5080 O.2    41  LYS41      -0.2867
     81  CB        41.3630   36.0950   -8.4260 C.3    41  LYS41       0.0271
     82  CG        41.0020   37.0430   -7.2970 C.3    41  LYS41       0.0035
     83  CD        39.8900   36.4760   -6.4260 C.3    41  LYS41       0.0206
     84  CE        39.1310   37.5900   -5.7280 C.3    41  LYS41       0.1093
     85  NZ        40.0300   38.5590   -5.0470 N.3    41  LYS41      -0.1314
     86  N         32.6790   26.8290   -7.9560 N.3    69  CYS69      -0.1221
     87  CA        32.7660   26.9520   -6.5240 C.3    69  CYS69       0.1808
     88  C         32.5460   28.3970   -6.1200 C.2    69  CYS69       0.2601
     89  O         33.5170   29.1570   -5.9480 O.2    69  CYS69      -0.2717
     90  CB        34.1290   26.4750   -6.0400 C.3    69  CYS69       0.0970
     91  SG        34.1930   26.3790   -4.2520 S.3    69  CYS69      -0.0800
     92  N         31.2730   28.7640   -5.9490 N.am   70  VAL70      -0.1965
     93  CA        30.9050   30.1230   -5.5570 C.3    70  VAL70       0.1727
     94  C         30.2020   30.1460   -4.1920 C.2    70  VAL70       0.2616
     95  O         29.9980   29.0970   -3.5620 O.2    70  VAL70      -0.2715
     96  CB        30.0710   30.8050   -6.6670 C.3    70  VAL70       0.0290
     97  CG1       30.8820   30.8390   -7.9840 C.3    70  VAL70       0.0023
     98  CG2       28.7320   30.1020   -6.8610 C.3    70  VAL70       0.0023
     99  N         29.8840   31.3420   -3.7150 N.am   71  SER71      -0.1950
    100  CA        29.5120   31.5640   -2.3120 C.3    71  SER71       0.1924
    101  C         28.1160   31.1050   -1.9030 C.2    71  SER71       0.2314
    102  O         27.9570   30.3220   -0.9830 O.2    71  SER71      -0.2863
    103  CB        29.6530   33.0660   -2.0240 C.3    71  SER71       0.2116
    104  OG        29.5640   33.8210   -3.2210 O.3    71  SER71      -0.2180
    105  N         22.3230   32.3880   -4.3830 N.3    74  LYS74      -0.1231
    106  CA        22.1980   33.5230   -5.3220 C.3    74  LYS74       0.1693
    107  C         23.3490   33.5450   -6.3490 C.2    74  LYS74       0.2591
    108  O         23.1220   33.6690   -7.5350 O.2    74  LYS74      -0.2718
    109  CB        22.1040   34.8460   -4.5340 C.3    74  LYS74       0.0285
    110  CG        21.7230   36.0120   -5.3980 C.3    74  LYS74       0.0035
    111  CD        21.8140   37.3240   -4.6250 C.3    74  LYS74       0.0206
    112  CE        23.2610   37.7240   -4.3140 C.3    74  LYS74       0.1093
    113  NZ        24.0070   36.7440   -3.4940 N.3    74  LYS74      -0.1314
    114  N         24.5800   33.3660   -5.8910 N.am   75  ALA75      -0.1980
    115  CA        25.7350   33.3310   -6.7990 C.3    75  ALA75       0.1597
    116  C         25.7450   32.1030   -7.7190 C.2    75  ALA75       0.2287
    117  O         26.0740   32.2090   -8.9050 O.2    75  ALA75      -0.2864
    118  CB        27.0630   33.3750   -6.0150 C.3    75  ALA75       0.0319
    119  N         23.0710   32.6850  -10.3570 N.3    78  ASP78      -0.1225
    120  CA        23.5120   33.7200  -11.3100 C.3    78  ASP78       0.1805
    121  C         24.6370   33.2190  -12.2380 C.2    78  ASP78       0.2597
    122  O         24.6490   33.4780  -13.4330 O.2    78  ASP78      -0.2718
    123  CB        23.9630   34.9810  -10.5590 C.3    78  ASP78       0.1424
    124  CG        24.4190   36.0820  -11.4820 C.2    78  ASP78       0.3668
    125  OD1       23.8980   36.2050  -12.6240 O.co2  78  ASP78      -0.2456
    126  OD2       25.3180   36.8300  -11.0490 O.co2  78  ASP78      -0.2456
    127  N         25.5750   32.4720  -11.6780 N.am   79  LEU79      -0.1979
    128  CA        26.6400   31.9010  -12.4810 C.3    79  LEU79       0.1596
    129  C         26.0830   31.0190  -13.6010 C.2    79  LEU79       0.2287
    130  O         26.6500   30.9800  -14.6810 O.2    79  LEU79      -0.2864
    131  CB        27.6100   31.0980  -11.5980 C.3    79  LEU79       0.0297
    132  CG        28.7570   30.4040  -12.3350 C.3    79  LEU79       0.0022
    133  CD1       29.5430   31.4400  -13.1040 C.3    79  LEU79       0.0001
    134  CD2       29.6650   29.6390  -11.3660 C.3    79  LEU79       0.0001
    135  N         30.2730   22.8040   -6.7890 N.3    99  MET99      -0.1230
    136  CA        30.8990   22.5990   -5.4880 C.3    99  MET99       0.1702
    137  C         30.5290   23.6490   -4.4390 C.2    99  MET99       0.2593
    138  O         31.0430   23.6280   -3.3210 O.2    99  MET99      -0.2718
    139  CB        32.4070   22.6030   -5.6510 C.3    99  MET99       0.0401
    140  CG        32.8840   21.6570   -6.7040 C.3    99  MET99       0.0596
    141  SD        34.6300   21.3070   -6.5550 S.3    99  MET99      -0.1393
    142  CE        34.6050   20.0740   -5.2670 C.3    99  MET99       0.0692
    143  N         29.6240   24.5550   -4.7790 N.am  100  SER100     -0.1938
    144  CA        29.1480   25.5800   -3.8350 C.3   100  SER100      0.2055
    145  C         28.2530   24.9080   -2.8110 C.2   100  SER100      0.2643
    146  O         27.6440   23.8720   -3.1070 O.2   100  SER100     -0.2714
    147  CB        28.3910   26.6690   -4.6060 C.3   100  SER100      0.2130
    148  OG        29.1160   27.0590   -5.7840 O.3   100  SER100     -0.2179
    149  N         28.1790   25.4640   -1.6020 N.am  101  THR101     -0.1950
    150  CA        27.2430   24.9590   -0.5820 C.3   101  THR101      0.1897
    151  C         25.9440   25.7360   -0.6840 C.2   101  THR101      0.2313
    152  O         25.8780   26.9270   -0.3590 O.2   101  THR101     -0.2863
    153  CB        27.8360   25.0610    0.8500 C.3   101  THR101      0.1794
    154  OG1       29.1040   24.3910    0.8810 O.3   101  THR101     -0.2208
    155  CG2       26.9100   24.4260    1.8930 C.3   101  THR101      0.0378
    156  N         32.1990   20.6740   -0.6940 N.3   126  VAL126     -0.1245
    157  CA        33.3960   20.2780   -0.0030 C.3   126  VAL126      0.1561
    158  C         33.3690   20.7180    1.4480 C.2   126  VAL126      0.2260
    159  O         32.9040   21.7830    1.7870 O.2   126  VAL126     -0.2867
    160  CB        34.6350   20.8440   -0.7160 C.3   126  VAL126      0.0252
    161  CG1       34.7400   20.2440   -2.1240 C.3   126  VAL126      0.0019
    162  CG2       34.5810   22.3630   -0.8040 C.3   126  VAL126      0.0019
    163  N         37.7080   29.7810    7.1820 N.3   237  PHE237     -0.1227
    164  CA        36.3600   29.6800    6.6690 C.3   237  PHE237      0.1736
    165  C         35.5860   30.9290    7.0680 C.2   237  PHE237      0.2595
    166  O         35.3960   31.1990    8.2600 O.2   237  PHE237     -0.2718
    167  CB        35.6420   28.4690    7.2580 C.3   237  PHE237      0.0547
    168  CG        34.5480   27.9530    6.3950 C.ar  237  PHE237     -0.0202
    169  CD1       34.8120   27.6490    5.0350 C.ar  237  PHE237     -0.0042
    170  CD2       33.2730   27.7490    6.8990 C.ar  237  PHE237     -0.0042
    171  CE1       33.8110   27.1630    4.1800 C.ar  237  PHE237     -0.0003
    172  CE2       32.2580   27.2550    6.0760 C.ar  237  PHE237     -0.0003
    173  CZ        32.5220   26.9630    4.7030 C.ar  237  PHE237     -0.0000
    174  N         35.1180   31.6860    6.0830 N.am  238  TYR238     -0.1976
    175  CA        34.4330   32.9580    6.3540 C.3   238  TYR238      0.1639
    176  C         33.2410   32.7920    7.2740 C.2   238  TYR238      0.2290
    177  O         32.4710   31.8410    7.1420 O.2   238  TYR238     -0.2864
    178  CB        33.9450   33.6190    5.0850 C.3   238  TYR238      0.0560
    179  CG        35.0010   34.2570    4.2180 C.ar  238  TYR238     -0.0198
    180  CD1       35.8170   35.2590    4.7080 C.ar  238  TYR238     -0.0009
    181  CD2       35.1280   33.9120    2.8750 C.ar  238  TYR238     -0.0009
    182  CE1       36.7650   35.8780    3.8880 C.ar  238  TYR238      0.0417
    183  CE2       36.0710   34.5250    2.0490 C.ar  238  TYR238      0.0417
    184  CZ        36.8850   35.4910    2.5620 C.ar  238  TYR238      0.1957
    185  OH        37.8170   36.0830    1.7600 O.3   238  TYR238     -0.2866
    186  N         30.6380   34.6510    7.3940 N.3   240  LYS240     -0.1231
    187  CA        29.4180   34.7940    6.6020 C.3   240  LYS240      0.1693
    188  C         28.9950   33.4630    5.9900 C.2   240  LYS240      0.2592
    189  O         27.7990   33.2070    5.8440 O.2   240  LYS240     -0.2718
    190  CB        29.5550   35.8780    5.5300 C.3   240  LYS240      0.0285
    191  CG        30.5830   35.5970    4.4690 C.3   240  LYS240      0.0035
    192  CD        30.9180   36.8350    3.6600 C.3   240  LYS240      0.0206
    193  CE        31.9250   36.5180    2.5790 C.3   240  LYS240      0.1093
    194  NZ        32.3380   37.7190    1.8210 N.3   240  LYS240     -0.1314
    195  N         29.9570   32.6070    5.6590 N.am  241  TYR241     -0.1976
    196  CA        29.6120   31.3290    5.0560 C.3   241  TYR241      0.1639
    197  C         28.9940   30.3950    6.0630 C.2   241  TYR241      0.2290
    198  O         28.0240   29.7140    5.7460 O.2   241  TYR241     -0.2864
    199  CB        30.8050   30.6970    4.3360 C.3   241  TYR241      0.0560
    200  CG        31.2030   31.4610    3.0880 C.ar  241  TYR241     -0.0198
    201  CD1       30.3410   32.4170    2.5040 C.ar  241  TYR241     -0.0009
    202  CD2       32.4330   31.2290    2.4800 C.ar  241  TYR241     -0.0009
    203  CE1       30.7060   33.1200    1.3500 C.ar  241  TYR241      0.0417
    204  CE2       32.7990   31.9220    1.3260 C.ar  241  TYR241      0.0417
    205  CZ        31.9440   32.8760    0.7600 C.ar  241  TYR241      0.1957
    206  OH        32.3120   33.5790   -0.3890 O.3   241  TYR241     -0.2866
    207  N         25.4690   31.5010    6.7030 N.3   244  LYS244     -0.1231
    208  CA        24.6190   31.1040    5.5740 C.3   244  LYS244      0.1693
    209  C         24.2390   29.6260    5.7380 C.2   244  LYS244      0.2592
    210  O         23.0860   29.2600    5.5860 O.2   244  LYS244     -0.2718
    211  CB        25.3250   31.3580    4.2310 C.3   244  LYS244      0.0285
    212  CG        24.6760   30.7310    2.9970 C.3   244  LYS244      0.0035
    213  CD        25.7060   30.4040    1.9140 C.3   244  LYS244      0.0206
    214  CE        26.4450   29.0750    2.1690 C.3   244  LYS244      0.1093
    215  NZ        27.7440   28.9020    1.4230 N.3   244  LYS244     -0.1314
    216  N         25.2110   28.7850    6.0580 N.am  245  ASP245     -0.1974
    217  CA        24.9520   27.3690    6.2010 C.3   245  ASP245      0.1709
    218  C         24.0180   27.1090    7.3790 C.2   245  ASP245      0.2293
    219  O         23.1590   26.2270    7.2990 O.2   245  ASP245     -0.2864
    220  CB        26.2760   26.6040    6.3470 C.3   245  ASP245      0.1436
    221  CG        27.1720   26.6970    5.0830 C.2   245  ASP245      0.3671
    222  OD1       26.6450   26.9820    3.9750 O.co2 245  ASP245     -0.2456
    223  OD2       28.4130   26.4740    5.1890 O.co2 245  ASP245     -0.2456
@<TRIPOS>BOND
     1    43    45   ar
     2    43    42   ar
     3    45    46   ar
     4    42    41    1
     5    42    44   ar
     6    41    38    1
     7    46    44   ar
     8    46    48   ar
     9    44    47   ar
    10    38    37    1
    11    38    39    1
    12    48    50   ar
    13   130   129    2
    14    47    49   ar
    15   129   128    1
    16    50    49   ar
    17    39    51   am
    18    39    40    2
    19   122   121    2
    20    51    52    1
    21    54    53    2
    22   133   132    1
    23    62    61    2
    24   125   124   ar
    25   128   127    1
    26   128   131    1
    27    53    52    1
    28    53    59   am
    29   132   131    1
    30   132   134    1
    31   121   127   am
    32   121   120    1
    33    52    55    1
    34    60    61    1
    35    60    59    1
    36    60    63    1
    37    61    70   am
    38    72    73    2
    39    72    71    1
    40   124   126   ar
    41   124   123    1
    42    64    63    1
    43    64    65    1
    44   120   123    1
    45   120   119    1
    46    55    56    1
    47    71    70    1
    48    71    74    1
    49    11    10    1
    50    65    66    1
    51     1     2    1
    52    79    80    2
    53    79    78    1
    54    77    78    1
    55    10    12    1
    56    10     9    1
    57    56    58   am
    58    56    57    2
    59    76    74    1
    60    74    75    1
    61    78    81    1
    62    66    67    2
    63     2     3    1
    64   117   116    2
    65     9     6    1
    66    81    82    1
    67     3     5   am
    68     3     4    2
    69     5     6    1
    70    68    67    1
    71    67    69    1
    72    97    96    1
    73    86    87    1
    74   116   115    1
    75     6     7    1
    76   108   107    2
    77    82    83    1
    78    98    96    1
    79   115   118    1
    80   115   114    1
    81   135   136    1
    82   140   141    1
    83   140   139    1
    84    96    93    1
    85   141   142    1
    86    87    88    1
    87    87    90    1
    88    36    35    2
    89    83    84    1
    90   107   114   am
    91   107   106    1
    92     7     8    2
    93     7    13   am
    94    88    92   am
    95    88    89    2
    96    90    91    1
    97    92    93    1
    98   148   147    1
    99    84    85    1
   100    35    34    1
   101   139   136    1
   102    93    94    1
   103   136   137    1
   104   110   111    1
   105   110   109    1
   106    34    33    1
   107    13    14    1
   108   106   109    1
   109   106   105    1
   110   143   137   am
   111   143   144    1
   112   111   112    1
   113   147   144    1
   114   137   138    2
   115   112   113    1
   116    94    99   am
   117    94    95    2
   118    14    15    1
   119    33    27   am
   120   144   145    1
   121    99   100    1
   122    16    15    2
   123    28    27    2
   124   104   103    1
   125   146   145    2
   126    15    17   am
   127    27    26    1
   128   145   149   am
   129   100   103    1
   130   100   101    1
   131   161   160    1
   132   101   102    2
   133    17    18    1
   134   149   150    1
   135    26    29    1
   136    26    25    1
   137    29    30    1
   138    25    19   am
   139    19    20    2
   140    19    18    1
   141   162   160    1
   142   160   157    1
   143   156   157    1
   144   151   150    1
   145   151   152    2
   146    18    21    1
   147   150   153    1
   148   206   205    1
   149    30    31    1
   150   157   158    1
   151    21    22    1
   152   205   204   ar
   153   205   203   ar
   154   153   154    1
   155   153   155    1
   156    31    32    1
   157   204   202   ar
   158   203   201   ar
   159   215   214    1
   160   158   159    2
   161    23    22    1
   162   185   184    1
   163   194   193    1
   164    22    24    1
   165   213   214    1
   166   213   212    1
   167   183   184   ar
   168   183   181   ar
   169   202   200   ar
   170   201   200   ar
   171   184   182   ar
   172   193   192    1
   173   181   179   ar
   174   212   211    1
   175   200   199    1
   176   192   191    1
   177   182   180   ar
   178   222   221   ar
   179   171   173   ar
   180   171   169   ar
   181   179   180   ar
   182   179   178    1
   183   211   208    1
   184   199   196    1
   185   191   190    1
   186   173   172   ar
   187   169   168   ar
   188   196   195    1
   189   196   197    1
   190   221   223   ar
   191   221   220    1
   192   178   175    1
   193   190   187    1
   194   208   209    1
   195   208   207    1
   196   210   209    2
   197   195   188   am
   198   209   216   am
   199   198   197    2
   200   189   188    2
   201   188   187    1
   202   216   217    1
   203   172   170   ar
   204   174   175    1
   205   174   165   am
   206   217   220    1
   207   217   218    1
   208   175   176    1
   209   168   170   ar
   210   168   167    1
   211   187   186    1
   212   164   165    1
   213   164   163    1
   214   164   167    1
   215   165   166    2
   216   177   176    2
   217   219   218    2
