@<TRIPOS>MOLECULE
tmp/2uz1B02.pdb
 77 72 0 0 0
SMALL
GASTEIGER

@<TRIPOS>ATOM
      1  N         20.7370  -13.7250    0.6310 N.3    64  ALA64      -0.1231
      2  CA        22.1720  -13.8230    0.2930 C.3    64  ALA64       0.1694
      3  C         22.6490  -12.5050   -0.3170 C.2    64  ALA64       0.2591
      4  O         23.1680  -12.4600   -1.4240 O.2    64  ALA64      -0.2718
      5  CB        22.4460  -15.0160   -0.6500 C.3    64  ALA64       0.0304
      6  N         22.4170  -11.4210    0.4130 N.am   65  LYS65      -0.1980
      7  CA        22.7270  -10.0710   -0.0820 C.3    65  LYS65       0.1596
      8  C         23.0030   -9.1450    1.1040 C.2    65  LYS65       0.2287
      9  O         22.9350   -9.5830    2.2500 O.2    65  LYS65      -0.2864
     10  CB        21.5640   -9.5460   -0.9370 C.3    65  LYS65       0.0298
     11  CG        20.2360   -9.4600   -0.1500 C.3    65  LYS65       0.0038
     12  CD        18.9850   -9.2990   -1.0190 C.3    65  LYS65       0.0206
     13  CE        19.0810   -8.0480   -1.8510 C.3    65  LYS65       0.1093
     14  NZ        17.8940   -7.9060   -2.7670 N.3    65  LYS65      -0.1314
     15  N         26.2400   -9.9960    6.5770 N.3    93  PRO93      -0.2116
     16  CA        26.6130   -8.6910    6.0200 C.3    93  PRO93       0.1372
     17  C         25.4900   -7.6510    6.1950 C.2    93  PRO93       0.2244
     18  O         24.5450   -7.6420    5.4300 O.2    93  PRO93      -0.2868
     19  CB        26.8690   -9.0040    4.5270 C.3    93  PRO93       0.0268
     20  CG        25.9280  -10.1540    4.2290 C.3    93  PRO93       0.0207
     21  CD        25.9000  -10.9830    5.5180 C.3    93  PRO93       0.0892
     22  N         30.5960   -6.9210    2.9320 N.3   149  LEU149     -0.1245
     23  CA        30.3590   -7.9840    1.9420 C.3   149  LEU149      0.1561
     24  C         31.5630   -8.8930    1.7220 C.2   149  LEU149      0.2260
     25  O         31.4410   -9.9480    1.0920 O.2   149  LEU149     -0.2867
     26  CB        29.9990   -7.3510    0.6020 C.3   149  LEU149      0.0270
     27  CG        28.6400   -6.6730    0.4640 C.3   149  LEU149      0.0019
     28  CD1       28.5420   -6.0820   -0.9340 C.3   149  LEU149      0.0001
     29  CD2       27.4990   -7.6550    0.7110 C.3   149  LEU149      0.0001
     30  N         31.8570  -12.3610    5.9230 N.3   153  ARG153     -0.1245
     31  CA        30.8450  -11.3090    5.9940 C.3   153  ARG153      0.1563
     32  C         30.5940  -10.8670    7.4370 C.2   153  ARG153      0.2260
     33  O         30.8250  -11.5990    8.3960 O.2   153  ARG153     -0.2867
     34  CB        29.5250  -11.7680    5.3410 C.3   153  ARG153      0.0307
     35  CG        29.5280  -11.6880    3.8040 C.3   153  ARG153      0.0489
     36  CD        30.3400  -12.8100    3.1900 C.3   153  ARG153      0.2205
     37  NE        30.3670  -12.6740    1.7430 N.pl3 153  ARG153     -0.0865
     38  CZ        31.2280  -13.3130    0.9500 C.cat 153  ARG153      0.5346
     39  NH1       32.1180  -14.1810    1.4530 N.pl3 153  ARG153      0.1354
     40  NH2       31.1960  -13.0760   -0.3580 N.pl3 153  ARG153      0.1354
     41  N         33.9190   -4.3160   -6.7700 N.3   181  LEU181     -0.1231
     42  CA        34.3890   -5.3190   -5.8580 C.3   181  LEU181      0.1693
     43  C         33.9810   -6.6270   -6.4970 C.2   181  LEU181      0.2593
     44  O         32.7930   -6.8540   -6.7460 O.2   181  LEU181     -0.2718
     45  CB        33.6860   -5.1590   -4.4990 C.3   181  LEU181      0.0284
     46  CG        33.9540   -6.2530   -3.4580 C.3   181  LEU181      0.0019
     47  CD1       35.3860   -6.2270   -2.9460 C.3   181  LEU181      0.0001
     48  CD2       32.9560   -6.1810   -2.2970 C.3   181  LEU181      0.0001
     49  N         34.9470   -7.4970   -6.7480 N.am  182  SER182     -0.1938
     50  CA        34.6300   -8.7140   -7.4550 C.3   182  SER182      0.2055
     51  C         33.6190   -9.5580   -6.6830 C.2   182  SER182      0.2642
     52  O         33.7150   -9.7200   -5.4650 O.2   182  SER182     -0.2714
     53  CB        35.8590   -9.5510   -7.7390 C.3   182  SER182      0.2130
     54  OG        35.4440  -10.6870   -8.4670 O.3   182  SER182     -0.2179
     55  N         32.6490  -10.0710   -7.4340 N.am  183  ALA183     -0.1977
     56  CA        31.6210  -10.9670   -6.9260 C.3   183  ALA183      0.1597
     57  C         32.2070  -12.3650   -6.6840 C.2   183  ALA183      0.2287
     58  O         31.6010  -13.1970   -6.0040 O.2   183  ALA183     -0.2864
     59  CB        30.4940  -11.0370   -7.9390 C.3   183  ALA183      0.0319
     60  N         26.2840  -17.4290    2.1630 N.3   216  ARG216     -0.1231
     61  CA        26.4050  -16.0360    1.7360 C.3   216  ARG216      0.1694
     62  C         26.7050  -15.9170    0.2460 C.2   216  ARG216      0.2592
     63  O         26.2150  -15.0140   -0.3990 O.2   216  ARG216     -0.2718
     64  CB        27.5080  -15.3110    2.5200 C.3   216  ARG216      0.0321
     65  CG        27.2590  -15.2710    4.0180 C.3   216  ARG216      0.0489
     66  CD        26.0000  -14.4620    4.4440 C.3   216  ARG216      0.2205
     67  NE        25.8830  -14.6100    5.9000 N.pl3 216  ARG216     -0.0865
     68  CZ        25.0500  -15.4200    6.5340 C.cat 216  ARG216      0.5346
     69  NH1       24.1350  -16.1230    5.8660 N.pl3 216  ARG216      0.1354
     70  NH2       25.1150  -15.4960    7.8600 N.pl3 216  ARG216      0.1354
     71  N         27.5470  -16.8060   -0.2730 N.am  217  THR217     -0.1953
     72  CA        27.8870  -16.7770   -1.7060 C.3   217  THR217      0.1897
     73  C         26.9970  -17.6640   -2.5810 C.2   217  THR217      0.2313
     74  O         26.9340  -17.4530   -3.7940 O.2   217  THR217     -0.2863
     75  CB        29.3590  -17.1290   -1.9420 C.3   217  THR217      0.1794
     76  OG1       29.6710  -18.3380   -1.2510 O.3   217  THR217     -0.2208
     77  CG2       30.2580  -15.9800   -1.4260 C.3   217  THR217      0.0378
@<TRIPOS>BOND
     1    54    53    1
     2    59    56    1
     3    53    50    1
     4    50    49    1
     5    50    51    1
     6    55    56    1
     7    55    51   am
     8    56    57    1
     9    41    42    1
    10    49    43   am
    11    44    43    2
    12    57    58    2
    13    51    52    2
    14    43    42    1
    15    42    45    1
    16    45    46    1
    17    74    73    2
    18    46    47    1
    19    46    48    1
    20    14    13    1
    21    73    72    1
    22    75    72    1
    23    75    77    1
    24    75    76    1
    25    13    12    1
    26    72    71    1
    27     4     3    2
    28    12    11    1
    29    10    11    1
    30    10     7    1
    31    28    27    1
    32     5     2    1
    33    63    62    2
    34    40    38    1
    35     3     2    1
    36     3     6   am
    37    71    62   am
    38     7     6    1
    39     7     8    1
    40    62    61    1
    41     2     1    1
    42    27    26    1
    43    27    29    1
    44    26    23    1
    45    38    39    1
    46    38    37    2
    47    25    24    2
    48     8     9    2
    49    24    23    1
    50    61    60    1
    51    61    64    1
    52    37    36    1
    53    23    22    1
    54    64    65    1
    55    36    35    1
    56    35    34    1
    57    65    66    1
    58    20    19    1
    59    20    21    1
    60    66    67    1
    61    19    16    1
    62    34    31    1
    63    18    17    2
    64    21    15    1
    65    69    68    1
    66    67    68    2
    67    30    31    1
    68    31    32    1
    69    16    17    1
    70    16    15    1
    71    68    70    1
    72    32    33    2
