@<TRIPOS>MOLECULE
tmp/2uz3D00.pdb
 212 206 0 0 0
SMALL
GASTEIGER

@<TRIPOS>ATOM
      1  N         16.3920   50.8160   50.8110 N.3    11  MET11      -0.1230
      2  CA        16.7340   52.2280   50.7190 C.3    11  MET11       0.1702
      3  C         17.8850   52.5260   51.6720 C.2    11  MET11       0.2592
      4  O         18.1500   51.7440   52.5900 O.2    11  MET11      -0.2718
      5  CB        15.5070   53.1020   51.0270 C.3    11  MET11       0.0401
      6  CG        14.3480   52.9380   50.0390 C.3    11  MET11       0.0596
      7  SD        12.8680   53.8830   50.4920 S.3    11  MET11      -0.1393
      8  CE        13.4350   55.5430   50.1050 C.3    11  MET11       0.0692
      9  N         18.5680   53.6480   51.4440 N.am   12  PHE12      -0.1962
     10  CA        19.7190   54.0750   52.2580 C.3    12  PHE12       0.1771
     11  C         20.9170   53.1160   52.2540 C.2    12  PHE12       0.2619
     12  O         21.7270   53.1530   53.1920 O.2    12  PHE12      -0.2715
     13  CB        19.2930   54.4270   53.6970 C.3    12  PHE12       0.0574
     14  CG        18.0020   55.1930   53.7710 C.ar   12  PHE12      -0.0200
     15  CD1       16.8320   54.5720   54.1760 C.ar   12  PHE12      -0.0042
     16  CD2       17.9460   56.5330   53.4060 C.ar   12  PHE12      -0.0042
     17  CE1       15.6260   55.2880   54.2170 C.ar   12  PHE12      -0.0003
     18  CE2       16.7580   57.2410   53.4470 C.ar   12  PHE12      -0.0003
     19  CZ        15.5990   56.6250   53.8600 C.ar   12  PHE12      -0.0000
     20  N         21.0330   52.2940   51.2040 N.am   13  ALA13      -0.1963
     21  CA        22.1290   51.3100   51.0740 C.3    13  ALA13       0.1728
     22  C         23.2830   51.7720   50.2030 C.2    13  ALA13       0.2617
     23  O         24.3450   51.1730   50.2260 O.2    13  ALA13      -0.2715
     24  CB        21.6050   49.9700   50.5710 C.3    13  ALA13       0.0334
     25  N         23.0540   52.8310   49.4320 N.am   14  GLY14      -0.1940
     26  CA        24.0570   53.3920   48.5430 C.3    14  GLY14       0.2014
     27  C         24.0910   52.7250   47.1800 C.2    14  GLY14       0.2639
     28  O         25.1300   52.6600   46.5520 O.2    14  GLY14      -0.2714
     29  N         22.9350   52.2570   46.7200 N.am   15  LYS15      -0.1963
     30  CA        22.7920   51.5770   45.4330 C.3    15  LYS15       0.1728
     31  C         23.2190   52.4610   44.2660 C.2    15  LYS15       0.2617
     32  O         24.0250   52.0400   43.4120 O.2    15  LYS15      -0.2715
     33  CB        21.3450   51.1050   45.2220 C.3    15  LYS15       0.0311
     34  CG        20.8590   50.0720   46.2330 C.3    15  LYS15       0.0038
     35  CD        19.5030   49.5000   45.8650 C.3    15  LYS15       0.0206
     36  CE        18.4220   50.5750   45.7970 C.3    15  LYS15       0.1093
     37  NZ        18.2420   51.3400   47.0620 N.3    15  LYS15      -0.1314
     38  N         22.6940   53.6860   44.2500 N.am   16  THR16      -0.1937
     39  CA        23.0030   54.6480   43.2050 C.3    16  THR16       0.2028
     40  C         24.4780   55.0510   43.2180 C.2    16  THR16       0.2642
     41  O         25.1080   55.1160   42.1650 O.2    16  THR16      -0.2714
     42  CB        22.0250   55.8450   43.2570 C.3    16  THR16       0.1808
     43  OG1       20.7020   55.3600   43.0210 O.3    16  THR16      -0.2208
     44  CG2       22.3540   56.8960   42.2030 C.3    16  THR16       0.0379
     45  N         25.0180   55.2950   44.4140 N.am   17  ALA17      -0.1977
     46  CA        26.4470   55.5300   44.6080 C.3    17  ALA17       0.1597
     47  C         27.2730   54.4030   43.9730 C.2    17  ALA17       0.2287
     48  O         28.2280   54.6640   43.2370 O.2    17  ALA17      -0.2864
     49  CB        26.7420   55.6540   46.0830 C.3    17  ALA17       0.0319
     50  N          9.3760   59.1170   36.7350 N.3    40  ILE40      -0.1245
     51  CA         8.4860   58.9670   37.8920 C.3    40  ILE40       0.1561
     52  C          7.3780   60.0350   38.0280 C.2    40  ILE40       0.2260
     53  O          6.1830   59.7240   37.9240 O.2    40  ILE40      -0.2867
     54  CB         9.2460   58.7510   39.2230 C.3    40  ILE40       0.0252
     55  CG1       10.6200   59.4320   39.2100 C.3    40  ILE40       0.0019
     56  CG2        9.3820   57.2490   39.4780 C.3    40  ILE40       0.0019
     57  CD1       11.4520   59.1810   40.4630 C.3    40  ILE40       0.0001
     58  N         18.8650   52.7960   36.2830 N.3    86  ASP86      -0.1225
     59  CA        18.6360   53.0210   37.7170 C.3    86  ASP86       0.1805
     60  C         17.1580   52.9500   38.0740 C.2    86  ASP86       0.2597
     61  O         16.2960   53.1950   37.2420 O.2    86  ASP86      -0.2718
     62  CB        19.2900   54.3350   38.2060 C.3    86  ASP86       0.1424
     63  CG        19.5040   54.3750   39.7380 C.2    86  ASP86       0.3668
     64  OD1       19.8400   55.4560   40.2440 O.co2  86  ASP86      -0.2456
     65  OD2       19.3410   53.3420   40.4340 O.co2  86  ASP86      -0.2456
     66  N         16.8900   52.5720   39.3220 N.am   87  GLU87      -0.1979
     67  CA        15.5240   52.4460   39.8560 C.3    87  GLU87       0.1602
     68  C         14.6020   51.5400   39.0230 C.2    87  GLU87       0.2287
     69  O         13.4700   51.9310   38.7350 O.2    87  GLU87      -0.2864
     70  CB        14.8770   53.8350   39.9930 C.3    87  GLU87       0.0415
     71  CG        15.8530   54.9460   40.3250 C.3    87  GLU87       0.1163
     72  CD        15.1610   56.1590   40.8780 C.2    87  GLU87       0.3649
     73  OE1       15.1530   57.2060   40.1820 O.co2  87  GLU87      -0.2457
     74  OE2       14.6150   56.0560   42.0080 O.co2  87  GLU87      -0.2457
     75  N         12.8250   49.0880   39.7200 N.3    89  GLN89      -0.1231
     76  CA        11.5880   48.6870   40.3720 C.3    89  GLN89       0.1698
     77  C         10.3390   49.3550   39.7740 C.2    89  GLN89       0.2592
     78  O          9.2470   48.7940   39.8610 O.2    89  GLN89      -0.2718
     79  CB        11.6380   48.9140   41.8860 C.3    89  GLN89       0.0381
     80  CG        11.4960   50.3740   42.3500 C.3    89  GLN89       0.0905
     81  CD        12.8220   51.0960   42.4300 C.2    89  GLN89       0.2608
     82  OE1       13.8760   50.5360   42.1140 O.2    89  GLN89      -0.2717
     83  NE2       12.7830   52.3350   42.8600 N.am   89  GLN89      -0.0878
     84  N         10.5090   50.5320   39.1650 N.am   90  PHE90      -0.1976
     85  CA         9.3920   51.2910   38.6000 C.3    90  PHE90       0.1639
     86  C          9.0220   50.8920   37.1750 C.2    90  PHE90       0.2290
     87  O          7.9880   51.3340   36.6680 O.2    90  PHE90      -0.2864
     88  CB         9.6280   52.8270   38.6880 C.3    90  PHE90       0.0560
     89  CG         9.6740   53.3650   40.1010 C.ar   90  PHE90      -0.0200
     90  CD1        8.6840   53.0500   41.0200 C.ar   90  PHE90      -0.0042
     91  CD2       10.7260   54.1850   40.5160 C.ar   90  PHE90      -0.0042
     92  CE1        8.7440   53.5460   42.3340 C.ar   90  PHE90      -0.0003
     93  CE2       10.7850   54.6840   41.8080 C.ar   90  PHE90      -0.0003
     94  CZ         9.8000   54.3610   42.7160 C.ar   90  PHE90      -0.0000
     95  N         15.5070   48.7650   44.0580 N.3   114  LEU114     -0.1245
     96  CA        15.0340   48.1380   45.2890 C.3   114  LEU114      0.1561
     97  C         14.5790   46.6900   45.0880 C.2   114  LEU114      0.2260
     98  O         13.8560   46.3940   44.1380 O.2   114  LEU114     -0.2867
     99  CB        13.8540   48.9200   45.8290 C.3   114  LEU114      0.0270
    100  CG        14.1070   50.3130   46.3880 C.3   114  LEU114      0.0019
    101  CD1       12.7850   50.9180   46.7730 C.3   114  LEU114      0.0001
    102  CD2       15.0480   50.2430   47.5700 C.3   114  LEU114      0.0001
    103  N         12.8190   45.1010   47.5810 N.3   116  LYS116     -0.1231
    104  CA        11.5650   45.0040   48.3150 C.3   116  LYS116      0.1693
    105  C         10.7590   46.2930   48.2670 C.2   116  LYS116      0.2592
    106  O         11.3080   47.3820   48.3730 O.2   116  LYS116     -0.2718
    107  CB        11.8060   44.6570   49.7910 C.3   116  LYS116      0.0285
    108  CG        12.3340   43.2480   50.0820 C.3   116  LYS116      0.0035
    109  CD        12.7320   43.1180   51.5540 C.3   116  LYS116      0.0206
    110  CE        13.5480   41.8510   51.8380 C.3   116  LYS116      0.1093
    111  NZ        14.9040   41.9180   51.2610 N.3   116  LYS116     -0.1314
    112  N          9.4440   46.1510   48.1230 N.am  117  ASN117     -0.1960
    113  CA         8.5340   47.2400   48.4440 C.3   117  ASN117      0.1819
    114  C          8.3380   47.3020   49.9650 C.2   117  ASN117      0.2621
    115  O          8.8760   46.4660   50.7010 O.2   117  ASN117     -0.2715
    116  CB         7.2000   47.0630   47.7150 C.3   117  ASN117      0.1195
    117  CG         6.4970   45.7530   48.0740 C.2   117  ASN117      0.2630
    118  OD1        6.6650   45.2110   49.1900 O.2   117  ASN117     -0.2716
    119  ND2        5.7090   45.2300   47.1240 N.am  117  ASN117     -0.0877
    120  N          7.5810   48.2860   50.4440 N.am  118  PHE118     -0.1974
    121  CA         7.4270   48.4680   51.8940 C.3   118  PHE118      0.1639
    122  C          6.8650   47.2270   52.5890 C.2   118  PHE118      0.2290
    123  O          7.0970   47.0350   53.7670 O.2   118  PHE118     -0.2864
    124  CB         6.5510   49.6730   52.2080 C.3   118  PHE118      0.0560
    125  CG         5.1060   49.4450   51.9250 C.ar  118  PHE118     -0.0200
    126  CD1        4.2270   49.1150   52.9550 C.ar  118  PHE118     -0.0042
    127  CD2        4.6220   49.5300   50.6310 C.ar  118  PHE118     -0.0042
    128  CE1        2.8850   48.9030   52.7010 C.ar  118  PHE118     -0.0003
    129  CE2        3.2870   49.3180   50.3610 C.ar  118  PHE118     -0.0003
    130  CZ         2.4130   49.0030   51.3920 C.ar  118  PHE118     -0.0000
    131  N          9.6310   43.8830   44.5900 N.3   123  PHE123     -0.1241
    132  CA         9.1840   45.1620   44.0690 C.3   123  PHE123      0.1605
    133  C          9.0970   45.1070   42.5570 C.2   123  PHE123      0.2264
    134  O         10.1150   45.0210   41.8740 O.2   123  PHE123     -0.2867
    135  CB        10.1450   46.2750   44.4960 C.3   123  PHE123      0.0534
    136  CG         9.5170   47.6440   44.5330 C.ar  123  PHE123     -0.0203
    137  CD1        8.5060   48.0040   43.6330 C.ar  123  PHE123     -0.0042
    138  CD2        9.9480   48.5810   45.4570 C.ar  123  PHE123     -0.0042
    139  CE1        7.9270   49.2620   43.6720 C.ar  123  PHE123     -0.0003
    140  CE2        9.3720   49.8520   45.4990 C.ar  123  PHE123     -0.0003
    141  CZ         8.3620   50.1930   44.5970 C.ar  123  PHE123     -0.0000
    142  N         13.1000   48.0060   53.6070 N.3   153  SER153     -0.1217
    143  CA        12.6110   49.3730   53.7070 C.3   153  SER153      0.1889
    144  C         11.3180   49.3820   54.5420 C.2   153  SER153      0.2288
    145  O         10.4010   48.5960   54.2810 O.2   153  SER153     -0.2866
    146  CB        12.3450   49.9490   52.3150 C.3   153  SER153      0.2089
    147  OG        13.5350   50.0510   51.5490 O.3   153  SER153     -0.2183
    148  N          8.0390   51.6950   55.8940 N.3   155  ARG155     -0.1245
    149  CA         7.2670   52.9310   55.6920 C.3   155  ARG155      0.1563
    150  C          6.4290   53.2770   56.9140 C.2   155  ARG155      0.2260
    151  O          5.7530   52.4180   57.4800 O.2   155  ARG155     -0.2867
    152  CB         6.3580   52.8370   54.4620 C.3   155  ARG155      0.0307
    153  CG         5.7770   54.1820   54.0250 C.3   155  ARG155      0.0489
    154  CD         4.5770   54.0250   53.1300 C.3   155  ARG155      0.2205
    155  NE         4.9480   53.6170   51.7780 N.pl3 155  ARG155     -0.0865
    156  CZ         4.1140   53.0600   50.8990 C.cat 155  ARG155      0.5346
    157  NH1        2.8460   52.8320   51.2280 N.pl3 155  ARG155      0.1354
    158  NH2        4.5500   52.7220   49.6830 N.pl3 155  ARG155      0.1354
    159  N          1.6280   50.6260   46.8740 N.3   168  ILE168     -0.1231
    160  CA         3.0250   50.2490   46.6830 C.3   168  ILE168      0.1692
    161  C          3.8980   51.4730   46.3540 C.2   168  ILE168      0.2592
    162  O          4.8580   51.7420   47.0640 O.2   168  ILE168     -0.2718
    163  CB         3.2000   49.0570   45.6540 C.3   168  ILE168      0.0266
    164  CG1        2.7890   47.7310   46.3160 C.3   168  ILE168      0.0019
    165  CG2        4.6420   48.9580   45.1650 C.3   168  ILE168      0.0020
    166  CD1        2.7480   46.5540   45.4010 C.3   168  ILE168      0.0001
    167  N          3.5400   52.2170   45.3150 N.am  169  VAL169     -0.1966
    168  CA         4.3190   53.3790   44.8920 C.3   169  VAL169      0.1727
    169  C          3.9920   54.6310   45.7150 C.2   169  VAL169      0.2616
    170  O          2.8510   55.0980   45.7400 O.2   169  VAL169     -0.2715
    171  CB         4.1360   53.6730   43.3750 C.3   169  VAL169      0.0290
    172  CG1        4.8310   54.9870   42.9800 C.3   169  VAL169      0.0023
    173  CG2        4.6040   52.4810   42.5170 C.3   169  VAL169      0.0023
    174  N          5.0100   55.1660   46.3820 N.am  170  LYS170     -0.1963
    175  CA         4.8940   56.4050   47.1430 C.3   170  LYS170      0.1728
    176  C          6.2760   57.0440   47.2310 C.2   170  LYS170      0.2616
    177  O          7.1130   56.5990   48.0020 O.2   170  LYS170     -0.2715
    178  CB         4.3500   56.1020   48.5440 C.3   170  LYS170      0.0311
    179  CG         3.6410   57.2590   49.2290 C.3   170  LYS170      0.0038
    180  CD         3.8080   57.1510   50.7350 C.3   170  LYS170      0.0206
    181  CE         2.6390   57.7370   51.5010 C.3   170  LYS170      0.1093
    182  NZ         2.1940   59.0800   50.9950 N.3   170  LYS170     -0.1314
    183  N          6.5150   58.0740   46.4260 N.am  171  ILE171     -0.1963
    184  CA         7.8230   58.7420   46.3600 C.3   171  ILE171      0.1727
    185  C          8.1020   59.5200   47.6400 C.2   171  ILE171      0.2617
    186  O          7.1880   60.1180   48.2240 O.2   171  ILE171     -0.2715
    187  CB         7.9290   59.6940   45.1520 C.3   171  ILE171      0.0290
    188  CG1        7.3680   59.0520   43.8640 C.3   171  ILE171      0.0022
    189  CG2        9.3670   60.2010   44.9670 C.3   171  ILE171      0.0023
    190  CD1        7.9120   57.6830   43.5110 C.3   171  ILE171      0.0001
    191  N          9.3610   59.4970   48.0730 N.am  172  GLY172     -0.1940
    192  CA         9.7730   60.1810   49.2910 C.3   172  GLY172      0.2014
    193  C         11.0760   59.6730   49.8670 C.2   172  GLY172      0.2639
    194  O         11.7320   58.7820   49.3060 O.2   172  GLY172     -0.2714
    195  N         11.4390   60.2460   51.0070 N.am  173  CYS173     -0.1967
    196  CA        12.6970   59.9380   51.6690 C.3   173  CYS173      0.1712
    197  C         12.4600   59.6090   53.1480 C.2   173  CYS173      0.2296
    198  O         11.5390   58.8550   53.4620 O.2   173  CYS173     -0.2864
    199  CB        13.6560   61.1080   51.4780 C.3   173  CYS173      0.0983
    200  SG        15.2980   60.7590   52.0690 S.3   173  CYS173     -0.0798
    201  N         10.2880   56.9170   55.0840 N.3   177  TYR177     -0.1241
    202  CA        11.0070   55.6620   55.0150 C.3   177  TYR177      0.1605
    203  C         12.2420   55.5770   55.9070 C.2   177  TYR177      0.2264
    204  O         12.9420   56.5640   56.1340 O.2   177  TYR177     -0.2867
    205  CB        11.4030   55.3700   53.5650 C.3   177  TYR177      0.0534
    206  CG        10.2670   55.1200   52.5930 C.ar  177  TYR177     -0.0201
    207  CD1        9.8920   56.0960   51.6720 C.ar  177  TYR177     -0.0009
    208  CD2        9.6010   53.8940   52.5650 C.ar  177  TYR177     -0.0009
    209  CE1        8.8740   55.8690   50.7480 C.ar  177  TYR177      0.0417
    210  CE2        8.5790   53.6530   51.6510 C.ar  177  TYR177      0.0417
    211  CZ         8.2210   54.6460   50.7410 C.ar  177  TYR177      0.1957
    212  OH         7.2080   54.4130   49.8340 O.3   177  TYR177     -0.2866
@<TRIPOS>BOND
     1    58    59    1
     2    87    86    2
     3    50    51    1
     4    86    85    1
     5    61    60    2
     6    59    60    1
     7    59    62    1
     8    51    52    1
     9    51    54    1
    10    53    52    2
    11    60    66   am
    12    62    63    1
    13    85    88    1
    14    85    84    1
    15    88    89    1
    16    69    68    2
    17    68    67    1
    18    84    77   am
    19    55    54    1
    20    55    57    1
    21    54    56    1
    22    66    67    1
    23    75    76    1
    24    63    64   ar
    25    63    65   ar
    26    77    78    2
    27    77    76    1
    28    67    70    1
    29    70    71    1
    30    89    91   ar
    31    89    90   ar
    32    73    72   ar
    33    71    72    1
    34    76    79    1
    35    91    93   ar
    36    72    74   ar
    37    90    92   ar
    38    93    94   ar
    39   134   133    2
    40    79    80    1
    41    82    81    2
    42    41    40    2
    43    44    42    1
    44    92    94   ar
    45    80    81    1
    46    81    83   am
    47   173   171    1
    48   133   132    1
    49   172   171    1
    50    43    42    1
    51    39    40    1
    52    39    42    1
    53    39    38    1
    54    40    45   am
    55    48    47    2
    56   171   168    1
    57    32    31    2
    58   190   188    1
    59   137   139   ar
    60   137   136   ar
    61   139   141   ar
    62   188   187    1
    63    47    46    1
    64    95    96    1
    65   132   135    1
    66   132   131    1
    67    98    97    2
    68    38    31   am
    69    31    30    1
    70    45    46    1
    71   135   136    1
    72   136   138   ar
    73   141   140   ar
    74    46    49    1
    75   168   167    1
    76   168   169    1
    77   189   187    1
    78    97    96    1
    79   187   184    1
    80   165   163    1
    81    33    30    1
    82    33    34    1
    83    96    99    1
    84   167   161   am
    85   166   164    1
    86    30    29    1
    87   138   140   ar
    88   163   164    1
    89   163   160    1
    90   169   170    2
    91   169   174   am
    92    36    35    1
    93    36    37    1
    94    99   100    1
    95    35    34    1
    96   161   160    1
    97   161   162    2
    98   184   183    1
    99   184   185    1
   100   174   175    1
   101   100   101    1
   102   100   102    1
   103   183   176   am
   104    28    27    2
   105   160   159    1
   106    29    27   am
   107   119   117   am
   108   175   176    1
   109   175   178    1
   110    27    26    1
   111   176   177    2
   112   103   104    1
   113   185   191   am
   114   185   186    2
   115   116   117    1
   116   116   113    1
   117   191   192    1
   118   117   118    2
   119   112   105   am
   120   112   113    1
   121   105   104    1
   122   105   106    2
   123   104   107    1
   124   113   114    1
   125    26    25    1
   126   178   179    1
   127   179   180    1
   128   192   193    1
   129   194   193    2
   130    25    22   am
   131   158   156    1
   132   107   108    1
   133   212   211    1
   134   193   195   am
   135   114   120   am
   136   114   115    2
   137     6     7    1
   138     6     5    1
   139   108   109    1
   140     8     7    1
   141    22    23    2
   142    22    21    1
   143   129   127   ar
   144   129   130   ar
   145   120   121    1
   146    24    21    1
   147   127   125   ar
   148     2     1    1
   149     2     5    1
   150     2     3    1
   151   180   181    1
   152   211   209   ar
   153   211   210   ar
   154   209   207   ar
   155   156   157    1
   156   156   155    2
   157   182   181    1
   158   195   196    1
   159    21    20    1
   160    20    11   am
   161   111   110    1
   162   130   128   ar
   163     9     3   am
   164     9    10    1
   165   199   196    1
   166   199   200    1
   167   147   146    1
   168   109   110    1
   169   210   208   ar
   170   196   197    1
   171   207   206   ar
   172     3     4    2
   173   155   154    1
   174   121   124    1
   175   121   122    1
   176   125   124    1
   177   125   126   ar
   178    11    10    1
   179    11    12    2
   180    10    13    1
   181   146   143    1
   182   208   206   ar
   183   122   123    2
   184   206   205    1
   185   128   126   ar
   186   154   153    1
   187   197   198    2
   188    16    18   ar
   189    16    14   ar
   190    18    19   ar
   191   205   202    1
   192   142   143    1
   193    13    14    1
   194   143   144    1
   195    14    15   ar
   196    19    17   ar
   197   153   152    1
   198    15    17   ar
   199   145   144    2
   200   152   149    1
   201   202   201    1
   202   202   203    1
   203   149   148    1
   204   149   150    1
   205   203   204    2
   206   150   151    2
