@<TRIPOS>MOLECULE
tmp/2uz9A00.pdb
 129 123 0 0 0
SMALL
GASTEIGER

@<TRIPOS>ATOM
      1  N          0.8550   -1.1780  -27.9230 N.3    77  HIS77      -0.1241
      2  CA        -0.5280   -1.5420  -28.3380 C.3    77  HIS77       0.1621
      3  C         -0.6180   -2.9670  -28.8760 C.2    77  HIS77       0.2264
      4  O         -0.3580   -3.2200  -30.0510 O.2    77  HIS77      -0.2867
      5  CB        -1.1020   -0.5820  -29.3860 C.3    77  HIS77       0.0745
      6  CG        -1.1420    0.8380  -28.9420 C.ar   77  HIS77       0.0817
      7  ND1       -2.3120    1.4720  -28.5870 N.ar   77  HIS77      -0.2268
      8  CD2       -0.1570    1.7530  -28.8080 C.ar   77  HIS77       0.1154
      9  CE1       -2.0420    2.7190  -28.2510 C.ar   77  HIS77       0.1986
     10  NE2       -0.7410    2.9090  -28.3620 N.ar   77  HIS77      -0.2212
     11  N         -2.3770   -3.7250  -32.1220 N.3    80  GLN80      -0.1245
     12  CA        -1.7640   -3.2480  -33.3670 C.3    80  GLN80       0.1566
     13  C         -0.6510   -4.1670  -33.8700 C.2    80  GLN80       0.2260
     14  O         -0.0700   -3.9060  -34.9100 O.2    80  GLN80      -0.2867
     15  CB        -1.2260   -1.8160  -33.1670 C.3    80  GLN80       0.0367
     16  CG        -2.3190   -0.7740  -32.9900 C.3    80  GLN80       0.0905
     17  CD        -1.8400    0.5880  -32.5180 C.2    80  GLN80       0.2608
     18  OE1       -0.6760    0.9580  -32.6250 O.2    80  GLN80      -0.2717
     19  NE2       -2.7690    1.3510  -31.9990 N.am   80  GLN80      -0.0878
     20  N          1.1090   11.0110  -37.0780 N.3    92  LEU92      -0.1245
     21  CA         0.2340   10.3690  -36.0990 C.3    92  LEU92       0.1561
     22  C         -1.2200   10.3530  -36.5100 C.2    92  LEU92       0.2260
     23  O         -1.8160    9.2870  -36.6280 O.2    92  LEU92      -0.2867
     24  CB         0.3720   11.0240  -34.7120 C.3    92  LEU92       0.0270
     25  CG        -0.4630   10.4370  -33.5570 C.3    92  LEU92       0.0019
     26  CD1       -0.0600    8.9920  -33.2840 C.3    92  LEU92       0.0001
     27  CD2       -0.3390   11.3090  -32.3130 C.3    92  LEU92       0.0001
     28  N         -2.1470    8.6950  -39.7840 N.3    95  TRP95      -0.1227
     29  CA        -1.7950    7.2930  -39.4570 C.3    95  TRP95       0.1737
     30  C         -2.9360    6.5790  -38.7140 C.2    95  TRP95       0.2595
     31  O         -3.3630    5.5060  -39.1110 O.2    95  TRP95      -0.2718
     32  CB        -0.4920    7.2500  -38.6180 C.3    95  TRP95       0.0564
     33  CG        -0.0480    5.8520  -38.2240 C.ar   95  TRP95       0.0003
     34  CD1        0.5150    4.9090  -39.0410 C.ar   95  TRP95       0.0946
     35  CD2       -0.1430    5.2490  -36.9240 C.ar   95  TRP95       0.0152
     36  NE1        0.7600    3.7590  -38.3310 N.ar   95  TRP95      -0.2442
     37  CE2        0.3790    3.9460  -37.0300 C.ar   95  TRP95       0.0810
     38  CE3       -0.6310    5.6840  -35.6850 C.ar   95  TRP95       0.0012
     39  CZ2        0.4210    3.0780  -35.9650 C.ar   95  TRP95       0.0191
     40  CZ3       -0.5690    4.8130  -34.6080 C.ar   95  TRP95       0.0001
     41  CH2       -0.0510    3.5240  -34.7630 C.ar   95  TRP95       0.0015
     42  N         -3.4300    7.2130  -37.6520 N.am   96  LEU96      -0.1980
     43  CA        -4.5540    6.7050  -36.8720 C.3    96  LEU96       0.1596
     44  C         -5.8130    6.4340  -37.7170 C.2    96  LEU96       0.2287
     45  O         -6.4790    5.4110  -37.5470 O.2    96  LEU96      -0.2864
     46  CB        -4.8880    7.6910  -35.7270 C.3    96  LEU96       0.0297
     47  CG        -3.9860    7.6810  -34.4730 C.3    96  LEU96       0.0022
     48  CD1       -4.3300    8.8090  -33.4870 C.3    96  LEU96       0.0001
     49  CD2       -4.0830    6.3280  -33.7850 C.3    96  LEU96       0.0001
     50  N         -4.7950    2.4440  -37.8800 N.3   100  THR100     -0.1218
     51  CA        -4.9520    2.0380  -36.4980 C.3   100  THR100      0.1862
     52  C         -6.4000    1.7890  -36.1080 C.2   100  THR100      0.2287
     53  O         -6.7180    0.7490  -35.5220 O.2   100  THR100     -0.2866
     54  CB        -4.3080    3.0870  -35.6050 C.3   100  THR100      0.1770
     55  OG1       -3.0280    3.4000  -36.1640 O.3   100  THR100     -0.2211
     56  CG2       -4.1360    2.5980  -34.1820 C.3   100  THR100      0.0375
     57  N         -7.9250    6.9960  -24.2710 N.3   206  ARG206     -0.1231
     58  CA        -7.0160    6.9110  -25.4040 C.3   206  ARG206      0.1694
     59  C         -6.0950    8.1290  -25.4560 C.2   206  ARG206      0.2592
     60  O         -4.8720    7.9950  -25.4210 O.2   206  ARG206     -0.2718
     61  CB        -7.7620    6.7350  -26.7140 C.3   206  ARG206      0.0321
     62  CG        -6.8170    6.2250  -27.7550 C.3   206  ARG206      0.0489
     63  CD        -7.2550    6.4630  -29.1470 C.3   206  ARG206      0.2205
     64  NE        -6.3320    5.7680  -30.0180 N.pl3 206  ARG206     -0.0865
     65  CZ        -6.3960    4.4680  -30.2940 C.cat 206  ARG206      0.5346
     66  NH1       -7.3950    3.7180  -29.8440 N.pl3 206  ARG206      0.1354
     67  NH2       -5.4600    3.9230  -31.0660 N.pl3 206  ARG206      0.1354
     68  N         -6.7010    9.3080  -25.5420 N.am  207  PHE207     -0.1976
     69  CA        -6.0210   10.5930  -25.3460 C.3   207  PHE207      0.1639
     70  C         -7.0730   11.7030  -25.4120 C.2   207  PHE207      0.2290
     71  O         -8.2290   11.4120  -25.6090 O.2   207  PHE207     -0.2864
     72  CB        -4.7980   10.8300  -26.2780 C.3   207  PHE207      0.0560
     73  CG        -5.1050   10.8930  -27.7560 C.ar  207  PHE207     -0.0200
     74  CD1       -4.1830   11.4790  -28.6060 C.ar  207  PHE207     -0.0042
     75  CD2       -6.2860   10.3910  -28.3150 C.ar  207  PHE207     -0.0042
     76  CE1       -4.4070   11.5520  -29.9770 C.ar  207  PHE207     -0.0003
     77  CE2       -6.5130   10.4760  -29.6840 C.ar  207  PHE207     -0.0003
     78  CZ        -5.5710   11.0400  -30.5060 C.ar  207  PHE207     -0.0000
     79  N         -1.7410    9.0290  -23.8140 N.3   233  HIS233     -0.1241
     80  CA        -0.6670    9.6600  -24.6030 C.3   233  HIS233      0.1621
     81  C         -0.6350   11.1530  -24.3700 C.2   233  HIS233      0.2264
     82  O         -1.6750   11.7600  -24.1570 O.2   233  HIS233     -0.2867
     83  CB        -0.8840    9.4760  -26.0920 C.3   233  HIS233      0.0745
     84  CG        -1.0260    8.0600  -26.5220 C.ar  233  HIS233      0.0817
     85  ND1       -2.1860    7.3470  -26.3420 N.ar  233  HIS233     -0.2268
     86  CD2       -0.1710    7.2380  -27.1750 C.ar  233  HIS233      0.1154
     87  CE1       -2.0330    6.1360  -26.8500 C.ar  233  HIS233      0.1986
     88  NE2       -0.8190    6.0440  -27.3590 N.ar  233  HIS233     -0.2212
     89  N          2.8050   14.1450  -28.3730 N.3   236  GLU236     -0.1245
     90  CA         3.6130   13.2880  -29.2260 C.3   236  GLU236      0.1567
     91  C          4.0250   14.0110  -30.4930 C.2   236  GLU236      0.2260
     92  O          5.1680   13.9140  -30.9440 O.2   236  GLU236     -0.2867
     93  CB         2.8170   12.0250  -29.5740 C.3   236  GLU236      0.0388
     94  CG         3.4110   11.1570  -30.6890 C.3   236  GLU236      0.1160
     95  CD         2.6360    9.8380  -30.8790 C.2   236  GLU236      0.3649
     96  OE1        1.5210    9.6970  -30.2930 O.co2 236  GLU236     -0.2457
     97  OE2        3.1700    8.9460  -31.5780 O.co2 236  GLU236     -0.2457
     98  N          5.0700    9.1080  -24.7750 N.3   272  HIS272     -0.1241
     99  CA         5.6970   10.0770  -25.6890 C.3   272  HIS272      0.1621
    100  C          6.3040   11.3100  -25.0530 C.2   272  HIS272      0.2264
    101  O          7.5060   11.3850  -24.9240 O.2   272  HIS272     -0.2867
    102  CB         4.7440   10.4540  -26.8320 C.3   272  HIS272      0.0745
    103  CG         4.2710    9.2620  -27.5910 C.ar  272  HIS272      0.0817
    104  ND1        5.1440    8.4090  -28.2270 N.ar  272  HIS272     -0.2268
    105  CD2        3.0360    8.7560  -27.7830 C.ar  272  HIS272      0.1154
    106  CE1        4.4600    7.4210  -28.7760 C.ar  272  HIS272      0.1986
    107  NE2        3.1790    7.6120  -28.5260 N.ar  272  HIS272     -0.2212
    108  N          8.7600    4.9770  -32.4220 N.3   297  SER297     -0.1217
    109  CA         7.5410    5.6590  -32.8380 C.3   297  SER297      0.1889
    110  C          7.8210    7.1190  -33.1930 C.2   297  SER297      0.2288
    111  O          7.3970    7.6150  -34.2500 O.2   297  SER297     -0.2866
    112  CB         6.4980    5.5890  -31.7090 C.3   297  SER297      0.2089
    113  OG         5.1870    5.9650  -32.1270 O.3   297  SER297     -0.2183
    114  N          7.1430    7.7990  -37.1360 N.3   301  LEU301     -0.1245
    115  CA         5.9960    8.6380  -37.5200 C.3   301  LEU301      0.1561
    116  C          6.3170   10.1380  -37.7030 C.2   301  LEU301      0.2260
    117  O          5.3980   10.9440  -37.9530 O.2   301  LEU301     -0.2867
    118  CB         4.8540    8.4550  -36.5220 C.3   301  LEU301      0.0270
    119  CG         4.2460    7.0530  -36.4030 C.3   301  LEU301      0.0019
    120  CD1        3.1120    7.0570  -35.3920 C.3   301  LEU301      0.0001
    121  CD2        3.8170    6.5150  -37.7880 C.3   301  LEU301      0.0001
    122  N          5.7700    1.0500  -28.0790 N.3   323  ASP323     -0.1239
    123  CA         4.6120    1.6050  -28.8160 C.3   323  ASP323      0.1674
    124  C          4.2910    0.8960  -30.1550 C.2   323  ASP323      0.2266
    125  O          3.9740    1.5370  -31.1660 O.2   323  ASP323     -0.2867
    126  CB         4.8330    3.0860  -29.0810 C.3   323  ASP323      0.1410
    127  CG         3.6050    3.7680  -29.5550 C.2   323  ASP323      0.3668
    128  OD1        2.5110    3.3390  -29.1720 O.co2 323  ASP323     -0.2456
    129  OD2        3.7100    4.7310  -30.3230 O.co2 323  ASP323     -0.2456
@<TRIPOS>BOND
     1    28    29    1
     2    29    30    1
     3    29    32    1
     4    31    30    2
     5    34    36   ar
     6    34    33   ar
     7    30    42   am
     8    32    33    1
     9    36    37   ar
    10    33    35   ar
    11   117   116    2
    12    50    51    1
    13   121   119    1
    14    44    45    2
    15    44    43    1
    16   116   115    1
    17    42    43    1
    18   115   114    1
    19   115   118    1
    20    20    21    1
    21    37    35   ar
    22    37    39   ar
    23    35    38   ar
    24    43    46    1
    25    23    22    2
    26   118   119    1
    27    22    21    1
    28    51    52    1
    29    51    54    1
    30   119   120    1
    31    55    54    1
    32    52    53    2
    33    21    24    1
    34    39    41   ar
    35    46    47    1
    36    38    40   ar
    37    54    56    1
    38    14    13    2
    39    41    40   ar
    40    24    25    1
    41    47    49    1
    42    47    48    1
    43   111   110    2
    44    13    12    1
    45    25    26    1
    46    25    27    1
    47    12    15    1
    48    12    11    1
    49   110   109    1
    50    15    16    1
    51    16    17    1
    52   109   108    1
    53   109   112    1
    54    18    17    2
    55    17    19   am
    56   113   112    1
    57    97    95   ar
    58   125   124    2
    59    67    65    1
    60    92    91    2
    61    95    94    1
    62    95    96   ar
    63    94    93    1
    64    78    76   ar
    65    78    77   ar
    66    91    90    1
    67   129   127   ar
    68    65    64    2
    69    65    66    1
    70   124   123    1
    71     4     3    2
    72    64    63    1
    73    76    74   ar
    74    77    75   ar
    75    93    90    1
    76   127   128   ar
    77   127   126    1
    78     5     6    1
    79     5     2    1
    80    90    89    1
    81    63    62    1
    82   126   123    1
    83     6     8   ar
    84     6     7   ar
    85     3     2    1
    86   123   122    1
    87     8    10   ar
    88   106   107   ar
    89   106   104   ar
    90    74    73   ar
    91     7     9   ar
    92   107   105   ar
    93    10     9   ar
    94     2     1    1
    95    75    73   ar
    96   104   103   ar
    97   105   103   ar
    98    73    72    1
    99    62    61    1
   100   103   102    1
   101    88    86   ar
   102    88    87   ar
   103    86    84   ar
   104    87    85   ar
   105   102    99    1
   106    61    58    1
   107    84    85   ar
   108    84    83    1
   109    72    69    1
   110    83    80    1
   111    99   100    1
   112    99    98    1
   113    71    70    2
   114    68    59   am
   115    68    69    1
   116    59    60    2
   117    59    58    1
   118    70    69    1
   119    58    57    1
   120   100   101    2
   121    80    81    1
   122    80    79    1
   123    81    82    2
