@<TRIPOS>MOLECULE
tmp/2uzbA00.pdb
 171 163 0 0 0
SMALL
GASTEIGER

@<TRIPOS>ATOM
      1  N         45.7770   18.2670   -1.8550 N.3    10  ILE10      -0.1231
      2  CA        44.8960   19.0330   -2.7460 C.3    10  ILE10       0.1692
      3  C         44.6040   20.4900   -2.3690 C.2    10  ILE10       0.2593
      4  O         43.8080   21.1350   -3.0550 O.2    10  ILE10      -0.2718
      5  CB        43.5560   18.3180   -3.0590 C.3    10  ILE10       0.0266
      6  CG1       42.7780   18.0180   -1.7800 C.3    10  ILE10       0.0019
      7  CG2       43.7890   17.0930   -3.9410 C.3    10  ILE10       0.0020
      8  CD1       41.5830   17.0720   -1.9740 C.3    10  ILE10       0.0001
      9  N         45.2250   21.0200   -1.3180 N.am   11  GLY11      -0.1942
     10  CA        44.9120   22.3810   -0.9390 C.3    11  GLY11       0.2014
     11  C         45.1430   22.7590    0.5020 C.2    11  GLY11       0.2638
     12  O         46.0110   22.1970    1.1650 O.2    11  GLY11      -0.2714
     13  N         44.3590   23.7210    0.9850 N.am   12  GLU12      -0.1977
     14  CA        44.6280   24.3420    2.2760 C.3    12  GLU12       0.1602
     15  C         43.3810   24.8020    3.0750 C.2    12  GLU12       0.2287
     16  O         42.2540   24.3240    2.8630 O.2    12  GLU12      -0.2864
     17  CB        45.6260   25.4910    2.0780 C.3    12  GLU12       0.0415
     18  CG        46.7620   25.5150    3.0960 C.3    12  GLU12       0.1163
     19  CD        46.4570   26.3860    4.3340 C.2    12  GLU12       0.3649
     20  OE1       46.5350   27.6420    4.2250 O.co2  12  GLU12      -0.2457
     21  OE2       46.1590   25.8130    5.4200 O.co2  12  GLU12      -0.2457
     22  N         44.2250   19.7280    3.1480 N.3    18  VAL18      -0.1245
     23  CA        43.3460   18.7290    2.5440 C.3    18  VAL18       0.1561
     24  C         44.0550   17.7150    1.6100 C.2    18  VAL18       0.2260
     25  O         44.9390   18.0880    0.8280 O.2    18  VAL18      -0.2867
     26  CB        42.1020   19.3990    1.8930 C.3    18  VAL18       0.0252
     27  CG1       41.0980   18.3470    1.4260 C.3    18  VAL18       0.0019
     28  CG2       41.4030   20.3320    2.8990 C.3    18  VAL18       0.0019
     29  N         38.4330   12.1640    1.1810 N.3    31  ALA31      -0.1245
     30  CA        39.1520   13.4040    1.4390 C.3    31  ALA31       0.1562
     31  C         39.5660   13.4490    2.9280 C.2    31  ALA31       0.2260
     32  O         38.7150   13.2830    3.8320 O.2    31  ALA31      -0.2867
     33  CB        38.2950   14.5770    1.0910 C.3    31  ALA31       0.0290
     34  N         41.1260   15.7760    5.8630 N.3    33  LYS33      -0.1245
     35  CA        41.3460   17.1300    6.3370 C.3    33  LYS33       0.1561
     36  C         42.1510   16.9890    7.6210 C.2    33  LYS33       0.2260
     37  O         41.6380   16.4770    8.6340 O.2    33  LYS33      -0.2867
     38  CB        39.9920   17.7910    6.6170 C.3    33  LYS33       0.0271
     39  CG        40.0030   19.3070    6.6630 C.3    33  LYS33       0.0035
     40  CD        38.6150   19.8630    6.9930 C.3    33  LYS33       0.0206
     41  CE        38.5450   21.3350    6.7250 C.3    33  LYS33       0.1093
     42  NZ        37.1570   21.8630    6.7270 N.3    33  LYS33      -0.1314
     43  N         32.6280   22.3650   13.2260 N.3    51  GLU51      -0.1245
     44  CA        32.5290   21.5250   12.0350 C.3    51  GLU51       0.1567
     45  C         32.0070   20.1280   12.3410 C.2    51  GLU51       0.2260
     46  O         30.9670   19.7230   11.8220 O.2    51  GLU51      -0.2867
     47  CB        33.8870   21.4490   11.3280 C.3    51  GLU51       0.0388
     48  CG        33.8370   20.8010    9.9340 C.3    51  GLU51       0.1160
     49  CD        35.0850   21.1120    9.0410 C.2    51  GLU51       0.3649
     50  OE1       36.2000   21.2130    9.6330 O.co2  51  GLU51      -0.2457
     51  OE2       34.9550   21.2270    7.7690 O.co2  51  GLU51      -0.2457
     52  N         28.5930   17.7880    2.0510 N.3    64  VAL64      -0.1245
     53  CA        29.6010   16.7400    2.2920 C.3    64  VAL64       0.1561
     54  C         29.1720   15.8120    3.4270 C.2    64  VAL64       0.2260
     55  O         28.6410   16.2550    4.4310 O.2    64  VAL64      -0.2867
     56  CB        30.9580   17.2550    2.7170 C.3    64  VAL64       0.0252
     57  CG1       31.9390   17.2850    1.5210 C.3    64  VAL64       0.0019
     58  CG2       30.8170   18.5770    3.4900 C.3    64  VAL64       0.0019
     59  N         36.1920   12.7920    4.7730 N.3    80  PHE80      -0.1227
     60  CA        35.0070   13.1480    4.0190 C.3    80  PHE80       0.1736
     61  C         34.8560   12.2940    2.7470 C.2    80  PHE80       0.2595
     62  O         35.8280   11.7400    2.2040 O.2    80  PHE80      -0.2718
     63  CB        35.1060   14.5940    3.5830 C.3    80  PHE80       0.0547
     64  CG        35.0750   15.5760    4.6890 C.ar   80  PHE80      -0.0202
     65  CD1       36.2450   16.0790    5.2220 C.ar   80  PHE80      -0.0042
     66  CD2       33.8690   16.0430    5.1940 C.ar   80  PHE80      -0.0042
     67  CE1       36.2180   17.0270    6.2790 C.ar   80  PHE80      -0.0003
     68  CE2       33.8470   16.9950    6.2530 C.ar   80  PHE80      -0.0003
     69  CZ        35.0390   17.4890    6.7760 C.ar   80  PHE80      -0.0000
     70  N         33.6390   12.2020    2.2330 N.am   81  GLU81      -0.1965
     71  CA        33.4960   11.7180    0.8610 C.3    81  GLU81       0.1733
     72  C         34.4410   12.5310   -0.0360 C.2    81  GLU81       0.2616
     73  O         34.6990   13.7010    0.2090 O.2    81  GLU81      -0.2715
     74  CB        32.0300   11.7650    0.3480 C.3    81  GLU81       0.0429
     75  CG        31.2380   13.0110    0.7500 C.3    81  GLU81       0.1163
     76  CD        29.9220   13.1990   -0.0130 C.2    81  GLU81       0.3649
     77  OE1       29.8200   12.7160   -1.1700 O.co2  81  GLU81      -0.2457
     78  OE2       28.9910   13.8490    0.5390 O.co2  81  GLU81      -0.2457
     79  N         34.9890   11.9020   -1.0690 N.am   82  PHE82      -0.1960
     80  CA        35.7790   12.6640   -2.0380 C.3    82  PHE82       0.1771
     81  C         34.9310   13.0160   -3.2430 C.2    82  PHE82       0.2619
     82  O         34.5210   12.1470   -3.9980 O.2    82  PHE82      -0.2715
     83  CB        37.0430   11.9160   -2.4510 C.3    82  PHE82       0.0574
     84  CG        37.7760   12.5420   -3.5960 C.ar   82  PHE82      -0.0200
     85  CD1       38.6970   13.5670   -3.3840 C.ar   82  PHE82      -0.0042
     86  CD2       37.5910   12.0790   -4.8900 C.ar   82  PHE82      -0.0042
     87  CE1       39.4060   14.1220   -4.4700 C.ar   82  PHE82      -0.0003
     88  CE2       38.2880   12.6410   -5.9630 C.ar   82  PHE82      -0.0003
     89  CZ        39.1780   13.6610   -5.7540 C.ar   82  PHE82      -0.0000
     90  N         34.6570   14.3030   -3.3880 N.am   83  LEU83      -0.1963
     91  CA        34.1040   14.8080   -4.6170 C.3    83  LEU83       0.1728
     92  C         35.2600   15.3590   -5.4560 C.2    83  LEU83       0.2616
     93  O         36.3540   15.6250   -4.9610 O.2    83  LEU83      -0.2715
     94  CB        33.0670   15.8750   -4.3370 C.3    83  LEU83       0.0311
     95  CG        31.6430   15.4640   -3.9610 C.3    83  LEU83       0.0022
     96  CD1       31.4690   15.3920   -2.4580 C.3    83  LEU83       0.0001
     97  CD2       30.7190   16.5330   -4.5020 C.3    83  LEU83       0.0001
     98  N         34.9830   15.5520   -6.7340 N.am   84  HIS84      -0.1959
     99  CA        36.0150   15.5510   -7.7610 C.3    84  HIS84       0.1787
    100  C         36.7840   16.8690   -7.9190 C.2    84  HIS84       0.2620
    101  O         37.9970   16.8450   -8.0430 O.2    84  HIS84      -0.2715
    102  CB        35.4190   14.9450   -9.0530 C.3    84  HIS84       0.0785
    103  CG        34.9010   13.5360   -8.8650 C.ar   84  HIS84       0.0821
    104  ND1       35.1400   12.5120   -9.7660 N.ar   84  HIS84      -0.2267
    105  CD2       34.1900   12.9760   -7.8500 C.ar   84  HIS84       0.1154
    106  CE1       34.5720   11.3980   -9.3250 C.ar   84  HIS84       0.1986
    107  NE2       33.9870   11.6530   -8.1660 N.ar   84  HIS84      -0.2212
    108  N         36.0790   17.9980   -7.9040 N.am   85  GLN85      -0.1963
    109  CA        36.7000   19.3250   -7.7340 C.3    85  GLN85       0.1733
    110  C         35.7500   20.3750   -7.1300 C.2    85  GLN85       0.2616
    111  O         34.5450   20.1420   -6.9850 O.2    85  GLN85      -0.2715
    112  CB        37.2830   19.8450   -9.0330 C.3    85  GLN85       0.0408
    113  CG        36.2680   20.3670  -10.0420 C.3    85  GLN85       0.0908
    114  CD        36.8880   20.5690  -11.4320 C.2    85  GLN85       0.2608
    115  OE1       36.3790   21.3220  -12.2500 O.2    85  GLN85      -0.2717
    116  NE2       37.9870   19.8740  -11.7000 N.am   85  GLN85      -0.0878
    117  N         36.3020   21.5220   -6.7480 N.am   86  ASP86      -0.1971
    118  CA        35.4670   22.5670   -6.1530 C.3    86  ASP86       0.1709
    119  C         34.9320   23.4740   -7.2620 C.2    86  ASP86       0.2293
    120  O         35.4700   23.4490   -8.3940 O.2    86  ASP86      -0.2864
    121  CB        36.1910   23.3630   -5.0400 C.3    86  ASP86       0.1436
    122  CG        37.3600   24.2230   -5.5520 C.2    86  ASP86       0.3671
    123  OD1       37.3760   24.6700   -6.7190 O.co2  86  ASP86      -0.2456
    124  OD2       38.2690   24.5090   -4.7480 O.co2  86  ASP86      -0.2456
    125  N         37.5270   26.0600   -9.2820 N.3    89  LYS89      -0.1245
    126  CA        38.3860   25.4090  -10.2650 C.3    89  LYS89       0.1561
    127  C         37.6050   25.0800  -11.5280 C.2    89  LYS89       0.2260
    128  O         38.1220   25.2220  -12.6440 O.2    89  LYS89      -0.2867
    129  CB        38.9800   24.1330   -9.6570 C.3    89  LYS89       0.0271
    130  CG        40.4190   23.8530  -10.0500 C.3    89  LYS89       0.0035
    131  CD        40.4580   23.0940  -11.3560 C.3    89  LYS89       0.0206
    132  CE        40.6190   21.6330  -11.0970 C.3    89  LYS89       0.1093
    133  NZ        41.9240   21.4210  -10.4070 N.3    89  LYS89      -0.1314
    134  N         35.1370   28.1690   -3.6340 N.3   131  GLN131     -0.1231
    135  CA        36.1990   27.2080   -3.2690 C.3   131  GLN131      0.1698
    136  C         35.7300   26.2200   -2.1920 C.2   131  GLN131      0.2592
    137  O         36.3440   25.1390   -1.9830 O.2   131  GLN131     -0.2718
    138  CB        37.5720   27.8250   -2.9290 C.3   131  GLN131      0.0381
    139  CG        37.5390   29.1450   -2.2340 C.3   131  GLN131      0.0905
    140  CD        37.3290   30.3060   -3.2030 C.2   131  GLN131      0.2608
    141  OE1       36.1970   30.7290   -3.4790 O.2   131  GLN131     -0.2717
    142  NE2       38.4260   30.8070   -3.7340 N.am  131  GLN131     -0.0878
    143  N         34.6170   26.5820   -1.5550 N.am  132  ASN132     -0.1974
    144  CA        33.9840   25.7350   -0.5770 C.3   132  ASN132      0.1688
    145  C         32.8820   24.8710   -1.1200 C.2   132  ASN132      0.2292
    146  O         32.3040   24.0810   -0.3870 O.2   132  ASN132     -0.2864
    147  CB        33.4890   26.5720    0.5860 C.3   132  ASN132      0.1181
    148  CG        34.6180   27.0500    1.4400 C.2   132  ASN132      0.2629
    149  OD1       35.7450   26.6060    1.2580 O.2   132  ASN132     -0.2716
    150  ND2       34.3400   27.9710    2.3620 N.am  132  ASN132     -0.0877
    151  N         31.6100   21.8930   -3.5450 N.3   134  LEU134     -0.1245
    152  CA        32.1320   20.7470   -4.3100 C.3   134  LEU134      0.1561
    153  C         31.1540   20.0820   -5.3340 C.2   134  LEU134      0.2260
    154  O         29.9090   19.9950   -5.1130 O.2   134  LEU134     -0.2867
    155  CB        32.7600   19.7040   -3.3710 C.3   134  LEU134      0.0270
    156  CG        33.7630   20.1650   -2.2980 C.3   134  LEU134      0.0019
    157  CD1       33.8190   19.1100   -1.1830 C.3   134  LEU134      0.0001
    158  CD2       35.2010   20.5080   -2.8550 C.3   134  LEU134      0.0001
    159  N         30.3410   22.3690    1.3730 N.3   144  ALA144     -0.1231
    160  CA        31.3930   21.8650    2.2560 C.3   144  ALA144      0.1694
    161  C         32.0460   22.9340    3.1290 C.2   144  ALA144      0.2592
    162  O         31.6510   24.0830    3.0950 O.2   144  ALA144     -0.2718
    163  CB        32.4080   21.1690    1.4850 C.3   144  ALA144      0.0304
    164  N         33.0380   22.5230    3.9330 N.am  145  ASP145     -0.1974
    165  CA        33.8420   23.4000    4.8590 C.3   145  ASP145      0.1709
    166  C         33.0130   24.1740    5.8580 C.2   145  ASP145      0.2293
    167  O         32.6210   25.3040    5.6320 O.2   145  ASP145     -0.2864
    168  CB        34.8340   24.3290    4.1070 C.3   145  ASP145      0.1436
    169  CG        35.9860   24.8870    5.0320 C.2   145  ASP145      0.3671
    170  OD1       36.1450   24.4690    6.2140 O.co2 145  ASP145     -0.2456
    171  OD2       36.7280   25.7910    4.5570 O.co2 145  ASP145     -0.2456
@<TRIPOS>BOND
     1   128   127    2
     2   115   114    2
     3   116   114   am
     4   127   126    1
     5   114   113    1
     6   131   132    1
     7   131   130    1
     8   132   133    1
     9   126   129    1
    10   126   125    1
    11   130   129    1
    12   113   112    1
    13   104   106   ar
    14   104   103   ar
    15   106   107   ar
    16   102   103    1
    17   102    99    1
    18   112   109    1
    19   103   105   ar
    20   120   119    2
    21   107   105   ar
    22   101   100    2
    23   100   108   am
    24   100    99    1
    25   108   109    1
    26    99    98    1
    27   109   110    1
    28   119   118    1
    29   110   111    2
    30   110   117   am
    31   117   118    1
    32    98    92   am
    33   123   122   ar
    34   118   121    1
    35    88    89   ar
    36    88    86   ar
    37    89    87   ar
    38   122   121    1
    39   122   124   ar
    40    92    93    2
    41    92    91    1
    42   153   154    2
    43   153   152    1
    44    86    84   ar
    45    91    94    1
    46    91    90    1
    47    97    95    1
    48    87    85   ar
    49    94    95    1
    50   152   151    1
    51   152   155    1
    52    82    81    2
    53    95    96    1
    54     7     5    1
    55   142   140   am
    56   134   135    1
    57    84    85   ar
    58    84    83    1
    59   141   140    2
    60    90    81   am
    61   155   156    1
    62   135   138    1
    63   135   136    1
    64    81    80    1
    65   140   139    1
    66     5     2    1
    67     5     6    1
    68     4     3    2
    69   138   139    1
    70   158   156    1
    71     2     3    1
    72     2     1    1
    73    83    80    1
    74     3     9   am
    75   156   157    1
    76   136   137    2
    77   136   143   am
    78    80    79    1
    79     8     6    1
    80   143   144    1
    81     9    10    1
    82    77    76   ar
    83   145   144    1
    84   145   146    2
    85    79    72   am
    86    10    11    1
    87   144   147    1
    88    72    73    2
    89    72    71    1
    90    76    78   ar
    91    76    75    1
    92    74    75    1
    93    74    71    1
    94    11    13   am
    95    11    12    2
    96   147   148    1
    97    25    24    2
    98    71    70    1
    99    13    14    1
   100    33    30    1
   101    29    30    1
   102   149   148    2
   103   159   160    1
   104    27    26    1
   105    30    31    1
   106   148   150   am
   107   163   160    1
   108    57    56    1
   109    24    23    1
   110    26    23    1
   111    26    28    1
   112    52    53    1
   113    17    14    1
   114    17    18    1
   115    62    61    2
   116    70    61   am
   117   160   161    1
   118    14    15    1
   119    53    56    1
   120    53    54    1
   121    23    22    1
   122    56    58    1
   123    61    60    1
   124    16    15    2
   125    31    32    2
   126   162   161    2
   127    18    19    1
   128   161   164   am
   129    54    55    2
   130    63    60    1
   131    63    64    1
   132   164   165    1
   133    60    59    1
   134   168   165    1
   135   168   169    1
   136    20    19   ar
   137    19    21   ar
   138   171   169   ar
   139    64    66   ar
   140    64    65   ar
   141   165   166    1
   142   169   170   ar
   143    66    68   ar
   144    65    67   ar
   145   167   166    2
   146    34    35    1
   147    68    69   ar
   148    67    69   ar
   149    35    38    1
   150    35    36    1
   151    38    39    1
   152    39    40    1
   153    41    42    1
   154    41    40    1
   155    36    37    2
   156    51    49   ar
   157    49    50   ar
   158    49    48    1
   159    48    47    1
   160    47    44    1
   161    46    45    2
   162    44    45    1
   163    44    43    1
