@<TRIPOS>MOLECULE
tmp/2uzeA00.pdb
 162 153 0 0 0
SMALL
GASTEIGER

@<TRIPOS>ATOM
      1  N         67.2360   59.7280   24.5370 N.3    10  ILE10      -0.1245
      2  CA        67.4330   60.6710   23.4140 C.3    10  ILE10       0.1561
      3  C         66.7490   60.2350   22.1280 C.2    10  ILE10       0.2260
      4  O         67.0250   60.7920   21.0690 O.2    10  ILE10      -0.2867
      5  CB        68.9410   60.9990   23.0910 C.3    10  ILE10       0.0252
      6  CG1       69.8060   59.7490   23.0180 C.3    10  ILE10       0.0019
      7  CG2       69.5380   61.9950   24.0850 C.3    10  ILE10       0.0019
      8  CD1       71.1860   60.0130   22.5240 C.3    10  ILE10       0.0001
      9  N         65.2160   54.4710   18.0840 N.3    13  GLY13      -0.1225
     10  CA        65.8330   54.1670   16.7970 C.3    13  GLY13       0.1811
     11  C         64.9220   53.2980   15.9430 C.2    13  GLY13       0.2280
     12  O         63.7150   53.1940   16.2050 O.2    13  GLY13      -0.2866
     13  N         67.2720   54.7530   22.3590 N.3    18  VAL18      -0.1245
     14  CA        68.6130   55.2310   22.5040 C.3    18  VAL18       0.1561
     15  C         68.6830   56.2170   23.6900 C.2    18  VAL18       0.2260
     16  O         67.9060   57.1900   23.7670 O.2    18  VAL18      -0.2867
     17  CB        69.1000   55.8650   21.1730 C.3    18  VAL18       0.0252
     18  CG1       70.4880   56.4750   21.3230 C.3    18  VAL18       0.0019
     19  CG2       69.0840   54.8110   20.0550 C.3    18  VAL18       0.0019
     20  N         76.2430   56.7680   23.7430 N.3    31  ALA31      -0.1245
     21  CA        74.8530   56.5100   23.4310 C.3    31  ALA31       0.1562
     22  C         74.5800   55.0270   23.6360 C.2    31  ALA31       0.2260
     23  O         75.3330   54.1880   23.1470 O.2    31  ALA31      -0.2867
     24  CB        74.5210   56.9250   22.0290 C.3    31  ALA31       0.0290
     25  N         72.1020   51.9590   22.8710 N.3    33  LYS33      -0.1245
     26  CA        70.9170   51.4740   22.1940 C.3    33  LYS33       0.1561
     27  C         70.4540   50.2090   22.9190 C.2    33  LYS33       0.2260
     28  O         71.1550   49.2160   22.9360 O.2    33  LYS33      -0.2867
     29  CB        71.1600   51.2670   20.6900 C.3    33  LYS33       0.0271
     30  CG        69.8750   51.0710   19.8840 C.3    33  LYS33       0.0035
     31  CD        70.1050   50.3620   18.5880 C.3    33  LYS33       0.0206
     32  CE        70.3640   51.3490   17.4950 C.3    33  LYS33       0.1093
     33  NZ        70.7170   50.6580   16.2270 N.3    33  LYS33      -0.1314
     34  N         73.2560   44.3590   12.4380 N.3    51  GLU51      -0.1245
     35  CA        73.8000   45.6450   12.8530 C.3    51  GLU51       0.1567
     36  C         75.1510   45.4940   13.4920 C.2    51  GLU51       0.2260
     37  O         76.0770   46.1610   13.0730 O.2    51  GLU51      -0.2867
     38  CB        72.8690   46.4600   13.7880 C.3    51  GLU51       0.0388
     39  CG        73.4980   47.8440   14.1150 C.3    51  GLU51       0.1160
     40  CD        72.5510   48.8730   14.7650 C.2    51  GLU51       0.3649
     41  OE1       71.7040   48.4490   15.6070 O.co2  51  GLU51      -0.2457
     42  OE2       72.6610   50.1140   14.4500 O.co2  51  GLU51      -0.2457
     43  N         79.3020   55.9740   12.4460 N.3    64  VAL64      -0.1245
     44  CA        79.1770   55.8520   13.9120 C.3    64  VAL64       0.1561
     45  C         79.9640   54.6270   14.4210 C.2    64  VAL64       0.2260
     46  O         79.9130   53.5570   13.8130 O.2    64  VAL64      -0.2867
     47  CB        77.6930   55.7560   14.3610 C.3    64  VAL64       0.0252
     48  CG1       77.0510   54.3950   13.9570 C.3    64  VAL64       0.0019
     49  CG2       77.5690   56.0390   15.8400 C.3    64  VAL64       0.0019
     50  N         77.7320   53.1950   21.8050 N.3    80  PHE80      -0.1227
     51  CA        78.1690   53.9770   20.6470 C.3    80  PHE80       0.1736
     52  C         78.9150   55.2100   21.1220 C.2    80  PHE80       0.2595
     53  O         78.6810   55.6900   22.2300 O.2    80  PHE80      -0.2718
     54  CB        76.9470   54.3990   19.7680 C.3    80  PHE80       0.0547
     55  CG        76.3990   53.2930   18.9010 C.ar   80  PHE80      -0.0202
     56  CD1       75.1710   52.6830   19.1980 C.ar   80  PHE80      -0.0042
     57  CD2       77.0840   52.8770   17.7820 C.ar   80  PHE80      -0.0042
     58  CE1       74.6560   51.6360   18.3770 C.ar   80  PHE80      -0.0003
     59  CE2       76.5870   51.8310   16.9640 C.ar   80  PHE80      -0.0003
     60  CZ        75.3930   51.2070   17.2700 C.ar   80  PHE80      -0.0000
     61  N         79.8070   55.7320   20.2900 N.am   81  GLU81      -0.1965
     62  CA        80.2960   57.1120   20.4990 C.3    81  GLU81       0.1733
     63  C         79.1070   58.0840   20.5340 C.2    81  GLU81       0.2616
     64  O         78.0930   57.8700   19.8590 O.2    81  GLU81      -0.2715
     65  CB        81.2450   57.5330   19.3820 C.3    81  GLU81       0.0429
     66  CG        80.5820   57.5330   18.0150 C.3    81  GLU81       0.1163
     67  CD        81.4560   58.1520   16.9720 C.2    81  GLU81       0.3649
     68  OE1       81.9640   59.2600   17.2190 O.co2  81  GLU81      -0.2457
     69  OE2       81.6440   57.5450   15.8950 O.co2  81  GLU81      -0.2457
     70  N         79.2170   59.1400   21.3230 N.am   82  PHE82      -0.1960
     71  CA        78.0850   60.0670   21.4510 C.3    82  PHE82       0.1771
     72  C         78.1790   61.1420   20.4120 C.2    82  PHE82       0.2619
     73  O         79.2440   61.7310   20.2100 O.2    82  PHE82      -0.2715
     74  CB        77.9860   60.7210   22.8280 C.3    82  PHE82       0.0574
     75  CG        76.7820   61.6190   22.9690 C.ar   82  PHE82      -0.0200
     76  CD1       75.4990   61.0680   23.0880 C.ar   82  PHE82      -0.0042
     77  CD2       76.9290   63.0230   22.9590 C.ar   82  PHE82      -0.0042
     78  CE1       74.3550   61.8890   23.2000 C.ar   82  PHE82      -0.0003
     79  CE2       75.8010   63.8630   23.0700 C.ar   82  PHE82      -0.0003
     80  CZ        74.5030   63.2930   23.1990 C.ar   82  PHE82      -0.0000
     81  N         77.0530   61.4070   19.7530 N.am   83  LEU83      -0.1963
     82  CA        76.9930   62.5100   18.8130 C.3    83  LEU83       0.1728
     83  C         75.8880   63.4530   19.2530 C.2    83  LEU83       0.2616
     84  O         74.9230   63.0220   19.8610 O.2    83  LEU83      -0.2715
     85  CB        76.8200   61.9750   17.4040 C.3    83  LEU83       0.0311
     86  CG        78.1640   61.4260   16.9030 C.3    83  LEU83       0.0022
     87  CD1       78.0130   60.0170   16.4690 C.3    83  LEU83       0.0001
     88  CD2       78.7810   62.2840   15.7860 C.3    83  LEU83       0.0001
     89  N         76.0700   64.7410   18.9760 N.am   84  HIS84      -0.1959
     90  CA        75.2210   65.8320   19.4930 C.3    84  HIS84       0.1787
     91  C         73.7220   65.7810   19.1030 C.2    84  HIS84       0.2620
     92  O         72.8580   65.7690   19.9690 O.2    84  HIS84      -0.2715
     93  CB        75.8970   67.1820   19.1440 C.3    84  HIS84       0.0785
     94  CG        75.0970   68.4010   19.5160 C.ar   84  HIS84       0.0821
     95  ND1       74.7060   69.3450   18.5860 N.ar   84  HIS84      -0.2267
     96  CD2       74.6290   68.8390   20.7170 C.ar   84  HIS84       0.1154
     97  CE1       74.0140   70.3010   19.1970 C.ar   84  HIS84       0.1986
     98  NE2       73.9580   70.0200   20.4910 N.ar   84  HIS84      -0.2212
     99  N         73.4280   65.7490   17.8110 N.am   85  GLN85      -0.1963
    100  CA        72.0620   65.5580   17.3110 C.3    85  GLN85       0.1733
    101  C         72.0210   64.9540   15.9040 C.2    85  GLN85       0.2616
    102  O         73.0570   64.7560   15.2590 O.2    85  GLN85      -0.2715
    103  CB        71.2850   66.8780   17.3380 C.3    85  GLN85       0.0408
    104  CG        71.6630   67.8930   16.2610 C.3    85  GLN85       0.0908
    105  CD        70.9330   69.2400   16.4310 C.2    85  GLN85       0.2608
    106  OE1       71.2260   70.2020   15.7340 O.2    85  GLN85      -0.2717
    107  NE2       70.0050   69.3030   17.3680 N.am   85  GLN85      -0.0878
    108  N         70.8250   64.6650   15.4160 N.am   86  ASP86      -0.1971
    109  CA        70.7160   64.1540   14.0560 C.3    86  ASP86       0.1709
    110  C         70.4620   65.2720   13.0470 C.2    86  ASP86       0.2293
    111  O         70.1160   66.3780   13.4280 O.2    86  ASP86      -0.2864
    112  CB        69.7030   63.0030   13.9600 C.3    86  ASP86       0.1436
    113  CG        68.2830   63.4210   14.2990 C.2    86  ASP86       0.3671
    114  OD1       67.7770   64.3790   13.6830 O.co2  86  ASP86      -0.2456
    115  OD2       67.6500   62.7510   15.1390 O.co2  86  ASP86      -0.2456
    116  N         66.9190   67.1560   13.0800 N.3    89  LYS89      -0.1245
    117  CA        66.8630   68.2540   14.0400 C.3    89  LYS89       0.1561
    118  C         67.6700   69.4700   13.5850 C.2    89  LYS89       0.2260
    119  O         67.1710   70.5930   13.6340 O.2    89  LYS89      -0.2867
    120  CB        67.3050   67.8200   15.4420 C.3    89  LYS89       0.0271
    121  CG        66.1900   67.2330   16.2570 C.3    89  LYS89       0.0035
    122  CD        66.4100   67.4540   17.7430 C.3    89  LYS89       0.0206
    123  CE        65.5010   66.5430   18.5490 C.3    89  LYS89       0.1093
    124  NZ        65.6650   65.1210   18.1090 N.3    89  LYS89      -0.1314
    125  N         67.3500   61.4360    9.9440 N.3   131  GLN131     -0.1231
    126  CA        67.3740   61.0830   11.3550 C.3   131  GLN131      0.1698
    127  C         68.3870   59.9750   11.7350 C.2   131  GLN131      0.2592
    128  O         68.6580   59.7470   12.9170 O.2   131  GLN131     -0.2718
    129  CB        65.9700   60.7690   11.8650 C.3   131  GLN131      0.0381
    130  CG        65.1450   60.1010   10.8570 C.3   131  GLN131      0.0905
    131  CD        64.1920   61.0390   10.1300 C.2   131  GLN131      0.2608
    132  OE1       64.4300   61.4500    8.9710 O.2   131  GLN131     -0.2717
    133  NE2       63.0790   61.3470   10.7920 N.am  131  GLN131     -0.0878
    134  N         68.9490   59.3300   10.7030 N.am  132  ASN132     -0.1974
    135  CA        69.9590   58.2700   10.8340 C.3   132  ASN132      0.1688
    136  C         71.3430   58.7970   10.5330 C.2   132  ASN132      0.2292
    137  O         72.3230   58.0120   10.4340 O.2   132  ASN132     -0.2864
    138  CB        69.6540   57.0930    9.9020 C.3   132  ASN132      0.1181
    139  CG        68.4840   56.2590   10.3860 C.2   132  ASN132      0.2629
    140  OD1       68.0710   56.3610   11.5290 O.2   132  ASN132     -0.2716
    141  ND2       67.9480   55.4330    9.5130 N.am  132  ASN132     -0.0877
    142  N         74.0470   61.4830   11.9160 N.3   134  LEU134     -0.1245
    143  CA        74.3240   62.2510   13.1250 C.3   134  LEU134      0.1561
    144  C         75.4980   63.1940   12.9550 C.2   134  LEU134      0.2260
    145  O         76.4490   62.9320   12.1890 O.2   134  LEU134     -0.2867
    146  CB        74.5930   61.3200   14.3180 C.3   134  LEU134      0.0270
    147  CG        73.5950   60.1930   14.5160 C.3   134  LEU134      0.0019
    148  CD1       74.2180   59.1230   15.3650 C.3   134  LEU134      0.0001
    149  CD2       72.2900   60.7660   15.1070 C.3   134  LEU134      0.0001
    150  N         74.5600   56.3090   10.7600 N.3   144  ALA144     -0.1231
    151  CA        74.1370   55.5180   11.8830 C.3   144  ALA144      0.1694
    152  C         72.9740   54.6380   11.4490 C.2   144  ALA144      0.2592
    153  O         72.5380   54.6520   10.2770 O.2   144  ALA144     -0.2718
    154  CB        73.7170   56.3850   13.0260 C.3   144  ALA144      0.0304
    155  N         72.5040   53.8640   12.4110 N.am  145  ASP145     -0.1974
    156  CA        71.4260   52.9020   12.2330 C.3   145  ASP145      0.1709
    157  C         71.6090   51.8800   11.1030 C.2   145  ASP145      0.2293
    158  O         71.0480   52.0070   10.0200 O.2   145  ASP145     -0.2864
    159  CB        70.0640   53.5860   12.1940 C.3   145  ASP145      0.1436
    160  CG        68.9710   52.6680   12.6810 C.2   145  ASP145      0.3671
    161  OD1       68.9640   51.4950   12.2410 O.co2 145  ASP145     -0.2456
    162  OD2       68.1210   53.0990   13.4970 O.co2 145  ASP145     -0.2456
@<TRIPOS>BOND
     1   132   131    2
     2   141   139   am
     3   138   139    1
     4   138   135    1
     5   125   126    1
     6   158   157    2
     7   131   133   am
     8   131   130    1
     9   153   152    2
    10   139   140    2
    11   137   136    2
    12   136   135    1
    13   134   135    1
    14   134   127   am
    15   150   151    1
    16   130   129    1
    17   157   156    1
    18   126   127    1
    19   126   129    1
    20   152   151    1
    21   152   155   am
    22   127   128    2
    23   151   154    1
    24   142   143    1
    25   145   144    2
    26   159   156    1
    27   159   160    1
    28   156   155    1
    29   161   160   ar
    30    34    35    1
    31    43    44    1
    32   160   162   ar
    33    35    36    1
    34    35    38    1
    35   144   143    1
    36   110   111    2
    37   110   109    1
    38    37    36    2
    39   116   117    1
    40   143   146    1
    41   118   119    2
    42   118   117    1
    43   114   113   ar
    44    38    39    1
    45    46    45    2
    46    44    47    1
    47    44    45    1
    48    48    47    1
    49   112   109    1
    50   112   113    1
    51   117   120    1
    52   109   108    1
    53    39    40    1
    54   113   115   ar
    55   146   147    1
    56    47    49    1
    57    42    40   ar
    58   147   149    1
    59   147   148    1
    60    40    41   ar
    61   102   101    2
    62   108   101   am
    63   120   121    1
    64   106   105    2
    65    88    86    1
    66    69    67   ar
    67   101   100    1
    68    11    12    2
    69    11    10    1
    70    33    32    1
    71   121   122    1
    72   104   105    1
    73   104   103    1
    74   105   107   am
    75    87    86    1
    76    10     9    1
    77    86    85    1
    78    59    60   ar
    79    59    57   ar
    80    67    68   ar
    81    67    66    1
    82    60    58   ar
    83   100   103    1
    84   100    99    1
    85    85    82    1
    86    32    31    1
    87   122   123    1
    88    57    55   ar
    89    99    91   am
    90    66    65    1
    91   124   123    1
    92    58    56   ar
    93    95    97   ar
    94    95    94   ar
    95    31    30    1
    96    82    83    1
    97    82    81    1
    98    55    56   ar
    99    55    54    1
   100    89    83   am
   101    89    90    1
   102    91    90    1
   103    91    92    2
   104    93    90    1
   105    93    94    1
   106    97    98   ar
   107    83    84    2
   108    65    62    1
   109    94    96   ar
   110    81    72   am
   111    54    51    1
   112    64    63    2
   113    30    29    1
   114    19    17    1
   115    73    72    2
   116    61    62    1
   117    61    52   am
   118    72    71    1
   119    98    96   ar
   120    62    63    1
   121    63    70   am
   122    51    52    1
   123    51    50    1
   124    29    26    1
   125     4     3    2
   126    52    53    2
   127    17    18    1
   128    17    14    1
   129    70    71    1
   130    71    74    1
   131    24    21    1
   132     3     2    1
   133    26    25    1
   134    26    27    1
   135    13    14    1
   136    14    15    1
   137     8     6    1
   138    74    75    1
   139    27    28    2
   140    77    75   ar
   141    77    79   ar
   142    75    76   ar
   143     6     5    1
   144    79    80   ar
   145    76    78   ar
   146     5     2    1
   147     5     7    1
   148    23    22    2
   149    80    78   ar
   150     2     1    1
   151    21    22    1
   152    21    20    1
   153    15    16    2
