@<TRIPOS>MOLECULE
tmp/2uzfA00.pdb
 180 172 0 0 0
SMALL
GASTEIGER

@<TRIPOS>ATOM
      1  N          6.8550  -14.3040  -42.1770 N.3    27  GLU27      -0.1231
      2  CA         7.7960  -15.3830  -42.4900 C.3    27  GLU27       0.1699
      3  C          8.2280  -16.1190  -41.2200 C.2    27  GLU27       0.2592
      4  O          8.3650  -17.3450  -41.2140 O.2    27  GLU27      -0.2718
      5  CB         9.0330  -14.8360  -43.2160 C.3    27  GLU27       0.0402
      6  CG         8.8350  -13.5000  -43.9470 C.3    27  GLU27       0.1161
      7  CD         9.0020  -12.2820  -43.0350 C.2    27  GLU27       0.3649
      8  OE1        9.8670  -12.3090  -42.1300 O.co2  27  GLU27      -0.2457
      9  OE2        8.2670  -11.2900  -43.2310 O.co2  27  GLU27      -0.2457
     10  N          8.4380  -15.3500  -40.1530 N.am   28  VAL28      -0.1966
     11  CA         8.7860  -15.8790  -38.8360 C.3    28  VAL28       0.1727
     12  C          7.5190  -15.9600  -37.9610 C.2    28  VAL28       0.2616
     13  O          7.5900  -16.1460  -36.7390 O.2    28  VAL28      -0.2715
     14  CB         9.9120  -15.0240  -38.1790 C.3    28  VAL28       0.0290
     15  CG1        9.3640  -13.7030  -37.6340 C.3    28  VAL28       0.0023
     16  CG2       10.6420  -15.8090  -37.0960 C.3    28  VAL28       0.0023
     17  N          6.3660  -15.8240  -38.6190 N.am   29  ARG29      -0.1977
     18  CA         5.0410  -15.9360  -37.9970 C.3    29  ARG29       0.1597
     19  C          4.7590  -14.7910  -37.0050 C.2    29  ARG29       0.2287
     20  O          4.1070  -14.9770  -35.9730 O.2    29  ARG29      -0.2864
     21  CB         4.8460  -17.3320  -37.3800 C.3    29  ARG29       0.0334
     22  CG         3.4230  -17.8580  -37.4480 C.3    29  ARG29       0.0492
     23  CD         3.3660  -19.2490  -38.0540 C.3    29  ARG29       0.2205
     24  NE         3.4830  -19.2010  -39.5110 N.pl3  29  ARG29      -0.0865
     25  CZ         3.5080  -20.2670  -40.3100 C.cat  29  ARG29       0.5346
     26  NH1        3.6190  -20.1070  -41.6240 N.pl3  29  ARG29       0.1354
     27  NH2        3.4260  -21.4930  -39.8050 N.pl3  29  ARG29       0.1354
     28  N          6.7940  -12.9970  -35.0650 N.3    31  ALA31      -0.1231
     29  CA         7.6570  -12.8420  -33.8980 C.3    31  ALA31       0.1694
     30  C          8.3740  -11.4920  -33.9550 C.2    31  ALA31       0.2592
     31  O          8.6960  -11.0000  -35.0430 O.2    31  ALA31      -0.2718
     32  CB         8.6680  -13.9720  -33.8350 C.3    31  ALA31       0.0304
     33  N          8.6200  -10.8990  -32.7870 N.am   32  PHE32      -0.1976
     34  CA         9.2900   -9.6000  -32.7130 C.3    32  PHE32       0.1639
     35  C         10.7680   -9.6780  -32.3330 C.2    32  PHE32       0.2290
     36  O         11.1710  -10.4720  -31.4750 O.2    32  PHE32      -0.2864
     37  CB         8.5440   -8.6240  -31.7870 C.3    32  PHE32       0.0560
     38  CG         8.2310   -9.1810  -30.4230 C.ar   32  PHE32      -0.0200
     39  CD1        9.2030   -9.2320  -29.4290 C.ar   32  PHE32      -0.0042
     40  CD2        6.9520   -9.6320  -30.1250 C.ar   32  PHE32      -0.0042
     41  CE1        8.9070   -9.7440  -28.1730 C.ar   32  PHE32      -0.0003
     42  CE2        6.6470  -10.1400  -28.8680 C.ar   32  PHE32      -0.0003
     43  CZ         7.6270  -10.1950  -27.8920 C.ar   32  PHE32      -0.0000
     44  N          4.2980  -14.1130  -32.2330 N.3    68  SER68      -0.1202
     45  CA         4.9480  -15.3150  -31.7060 C.3    68  SER68       0.2020
     46  C          5.8140  -15.0550  -30.4730 C.2    68  SER68       0.2619
     47  O          5.9440  -15.9290  -29.6150 O.2    68  SER68      -0.2717
     48  CB         5.7910  -15.9920  -32.7870 C.3    68  SER68       0.2103
     49  OG         4.9950  -16.3950  -33.8820 O.3    68  SER68      -0.2182
     50  N          6.4100  -13.8670  -30.3950 N.am   69  GLY69      -0.1942
     51  CA         7.3000  -13.5200  -29.2900 C.3    69  GLY69       0.2014
     52  C          8.6910  -13.1400  -29.7590 C.2    69  GLY69       0.2639
     53  O          8.8400  -12.3580  -30.6950 O.2    69  GLY69      -0.2714
     54  N          9.7120  -13.6900  -29.1050 N.am   70  GLY70      -0.1939
     55  CA        11.1030  -13.4730  -29.5100 C.3    70  GLY70       0.2014
     56  C         11.5090  -14.4260  -30.6180 C.2    70  GLY70       0.2639
     57  O         10.6480  -14.9280  -31.3430 O.2    70  GLY70      -0.2714
     58  N         12.8130  -14.6750  -30.7580 N.am   71  ASP71      -0.1957
     59  CA        13.3160  -15.6240  -31.7650 C.3    71  ASP71       0.1840
     60  C         14.8230  -15.9060  -31.7050 C.2    71  ASP71       0.2622
     61  O         15.2580  -16.8790  -31.0810 O.2    71  ASP71      -0.2715
     62  CB        12.9170  -15.1890  -33.1920 C.3    71  ASP71       0.1450
     63  CG        13.3860  -13.7850  -33.5410 C.2    71  ASP71       0.3671
     64  OD1       13.2390  -12.8710  -32.6980 O.co2  71  ASP71      -0.2456
     65  OD2       13.8980  -13.6020  -34.6670 O.co2  71  ASP71      -0.2456
     66  N         15.5900  -15.0450  -32.3770 N.am   72  GLN72      -0.1963
     67  CA        17.0380  -15.1690  -32.5940 C.3    72  GLN72       0.1733
     68  C         17.4210  -16.2600  -33.6000 C.2    72  GLN72       0.2616
     69  O         18.6080  -16.5280  -33.8150 O.2    72  GLN72      -0.2715
     70  CB        17.8040  -15.3250  -31.2740 C.3    72  GLN72       0.0408
     71  CG        18.8940  -14.2860  -31.0960 C.3    72  GLN72       0.0908
     72  CD        18.3280  -12.8810  -30.9820 C.2    72  GLN72       0.2608
     73  OE1       18.3570  -12.1090  -31.9410 O.2    72  GLN72      -0.2717
     74  NE2       17.7860  -12.5530  -29.8140 N.am   72  GLN72      -0.0878
     75  N         16.4140  -16.8690  -34.2260 N.am   73  LYS73      -0.1977
     76  CA        16.6330  -17.9020  -35.2410 C.3    73  LYS73       0.1596
     77  C         16.5290  -17.3330  -36.6540 C.2    73  LYS73       0.2287
     78  O         16.8320  -16.1610  -36.8880 O.2    73  LYS73      -0.2864
     79  CB        15.6500  -19.0520  -35.0550 C.3    73  LYS73       0.0298
     80  CG        15.5990  -19.6690  -33.6540 C.3    73  LYS73       0.0038
     81  CD        16.8940  -20.3520  -33.2600 C.3    73  LYS73       0.0206
     82  CE        16.7920  -20.9390  -31.8730 C.3    73  LYS73       0.1093
     83  NZ        16.5280  -19.8970  -30.8410 N.3    73  LYS73      -0.1314
     84  N         18.4280   -6.2330  -25.1650 N.3    80  ARG80      -0.1231
     85  CA        17.3050   -5.3970  -24.7520 C.3    80  ARG80       0.1694
     86  C         16.1060   -6.2590  -24.3790 C.2    80  ARG80       0.2591
     87  O         16.0020   -7.4140  -24.8020 O.2    80  ARG80      -0.2718
     88  CB        16.9050   -4.4300  -25.8730 C.3    80  ARG80       0.0321
     89  CG        17.5750   -3.0610  -25.8190 C.3    80  ARG80       0.0489
     90  CD        16.9190   -2.0970  -26.8050 C.3    80  ARG80       0.2205
     91  NE        17.2760   -0.7000  -26.5570 N.pl3  80  ARG80      -0.0865
     92  CZ        16.7050    0.3450  -27.1570 C.cat  80  ARG80       0.5346
     93  NH1       15.7390    0.1670  -28.0510 N.pl3  80  ARG80       0.1354
     94  NH2       17.0980    1.5760  -26.8610 N.pl3  80  ARG80       0.1354
     95  N         15.2080   -5.6900  -23.5820 N.am   81  LEU81      -0.1980
     96  CA        13.9250   -6.3180  -23.2800 C.3    81  LEU81       0.1596
     97  C         12.8210   -5.2610  -23.3460 C.2    81  LEU81       0.2287
     98  O         11.8810   -5.2630  -22.5460 O.2    81  LEU81      -0.2864
     99  CB        13.9730   -7.0060  -21.9150 C.3    81  LEU81       0.0297
    100  CG        13.0730   -8.2230  -21.6890 C.3    81  LEU81       0.0022
    101  CD1       13.4510   -9.3840  -22.5980 C.3    81  LEU81       0.0001
    102  CD2       13.1470   -8.6480  -20.2330 C.3    81  LEU81       0.0001
    103  N         10.3710   -4.9480  -24.9340 N.3    83  VAL83      -0.1245
    104  CA         9.0340   -5.5360  -25.0170 C.3    83  VAL83       0.1561
    105  C          8.1430   -4.9900  -23.9080 C.2    83  VAL83       0.2260
    106  O          6.9560   -4.7410  -24.1160 O.2    83  VAL83      -0.2867
    107  CB         9.1040   -7.0690  -24.8760 C.3    83  VAL83       0.0252
    108  CG1        7.7930   -7.7040  -25.2940 C.3    83  VAL83       0.0019
    109  CG2       10.2710   -7.6330  -25.6920 C.3    83  VAL83       0.0019
    110  N         -2.4060  -17.4790  -34.6620 N.3   104  TYR104     -0.1241
    111  CA        -1.6340  -17.7900  -33.4570 C.3   104  TYR104      0.1605
    112  C         -1.2760  -16.5350  -32.6680 C.2   104  TYR104      0.2264
    113  O         -0.6420  -15.6160  -33.1920 O.2   104  TYR104     -0.2867
    114  CB        -0.3540  -18.5700  -33.7950 C.3   104  TYR104      0.0534
    115  CG        -0.5700  -20.0150  -34.1990 C.ar  104  TYR104     -0.0201
    116  CD1       -0.5280  -20.3920  -35.5360 C.ar  104  TYR104     -0.0009
    117  CD2       -0.8040  -21.0040  -33.2440 C.ar  104  TYR104     -0.0009
    118  CE1       -0.7250  -21.7090  -35.9170 C.ar  104  TYR104      0.0417
    119  CE2       -1.0010  -22.3300  -33.6150 C.ar  104  TYR104      0.0417
    120  CZ        -0.9580  -22.6740  -34.9550 C.ar  104  TYR104      0.1957
    121  OH        -1.1500  -23.9820  -35.3470 O.3   104  TYR104     -0.2866
    122  N          0.6000  -16.6230  -29.3850 N.3   106  VAL106     -0.1231
    123  CA         1.2530  -17.4450  -28.3660 C.3   106  VAL106      0.1692
    124  C          2.4920  -16.7870  -27.7690 C.2   106  VAL106      0.2593
    125  O          3.1070  -15.9210  -28.3910 O.2   106  VAL106     -0.2718
    126  CB         1.6190  -18.8600  -28.8970 C.3   106  VAL106      0.0266
    127  CG1        0.3590  -19.7000  -29.1130 C.3   106  VAL106      0.0020
    128  CG2        2.4580  -18.7710  -30.1720 C.3   106  VAL106      0.0020
    129  N          2.8440  -17.2080  -26.5570 N.am  107  GLY107     -0.1942
    130  CA         4.0310  -16.7110  -25.8740 C.3   107  GLY107      0.2014
    131  C          3.9260  -15.2370  -25.5450 C.2   107  GLY107      0.2639
    132  O          2.9460  -14.7940  -24.9370 O.2   107  GLY107     -0.2714
    133  N          4.9420  -14.4810  -25.9570 N.am  108  GLY108     -0.1954
    134  CA         4.9570  -13.0310  -25.7870 C.3   108  GLY108      0.1869
    135  C          3.8070  -12.3970  -26.5370 C.2   108  GLY108      0.2309
    136  O          3.2380  -11.4000  -26.0890 O.2   108  GLY108     -0.2863
    137  N          4.0010  -20.0770  -23.8700 N.3   130  THR130     -0.1203
    138  CA         4.9920  -21.1080  -24.1840 C.3   130  THR130      0.1994
    139  C          6.2630  -20.9720  -23.3420 C.2   130  THR130      0.2618
    140  O          7.1650  -21.8070  -23.4240 O.2   130  THR130     -0.2717
    141  CB         5.3610  -21.0950  -25.6870 C.3   130  THR130      0.1784
    142  OG1        5.6340  -19.7510  -26.1030 O.3   130  THR130     -0.2211
    143  CG2        4.2250  -21.6600  -26.5290 C.3   130  THR130      0.0376
    144  N          6.3110  -19.9170  -22.5330 N.am  131  GLY131     -0.1956
    145  CA         7.4640  -19.5860  -21.6960 C.3   131  GLY131      0.1869
    146  C          8.2580  -20.7410  -21.1040 C.2   131  GLY131      0.2309
    147  O          9.4060  -20.9620  -21.4980 O.2   131  GLY131     -0.2863
    148  N         10.0120  -22.8760  -23.4840 N.3   134  VAL134     -0.1245
    149  CA        11.0500  -22.2000  -24.2640 C.3   134  VAL134      0.1561
    150  C         12.0300  -21.4120  -23.3670 C.2   134  VAL134      0.2260
    151  O         12.7390  -20.5130  -23.8310 O.2   134  VAL134     -0.2867
    152  CB        10.4150  -21.3110  -25.3820 C.3   134  VAL134      0.0252
    153  CG1        9.8830  -19.9890  -24.8240 C.3   134  VAL134      0.0019
    154  CG2       11.3990  -21.0730  -26.5190 C.3   134  VAL134      0.0019
    155  N         11.4880  -19.3110  -20.7040 N.3   136  SER136     -0.1202
    156  CA        11.0930  -17.9210  -20.5190 C.3   136  SER136      0.2020
    157  C          9.8470  -17.8330  -19.6390 C.2   136  SER136      0.2618
    158  O          9.3240  -18.8600  -19.1970 O.2   136  SER136     -0.2717
    159  CB        10.8410  -17.2640  -21.8790 C.3   136  SER136      0.2103
    160  OG        10.7250  -15.8590  -21.7550 O.3   136  SER136     -0.2182
    161  N          9.4070  -16.6030  -19.3600 N.am  137  PHE137     -0.1975
    162  CA         8.1380  -16.3230  -18.6710 C.3   137  PHE137      0.1639
    163  C          7.8710  -14.8270  -18.5650 C.2   137  PHE137      0.2290
    164  O          8.8020  -14.0330  -18.4090 O.2   137  PHE137     -0.2864
    165  CB         8.0760  -16.9650  -17.2730 C.3   137  PHE137      0.0560
    166  CG         9.2220  -16.5940  -16.3640 C.ar  137  PHE137     -0.0200
    167  CD1       10.3490  -17.4040  -16.2790 C.ar  137  PHE137     -0.0042
    168  CD2        9.1600  -15.4540  -15.5710 C.ar  137  PHE137     -0.0042
    169  CE1       11.4030  -17.0760  -15.4360 C.ar  137  PHE137     -0.0003
    170  CE2       10.2090  -15.1180  -14.7270 C.ar  137  PHE137     -0.0003
    171  CZ        11.3330  -15.9330  -14.6580 C.ar  137  PHE137     -0.0000
    172  N         -2.6000  -25.0350  -25.8640 N.3   164  GLN164     -0.1245
    173  CA        -3.1840  -24.1220  -26.8400 C.3   164  GLN164      0.1566
    174  C         -4.6820  -23.9690  -26.5740 C.2   164  GLN164      0.2260
    175  O         -5.3190  -24.8770  -26.0370 O.2   164  GLN164     -0.2867
    176  CB        -2.9430  -24.6300  -28.2630 C.3   164  GLN164      0.0367
    177  CG        -1.4910  -24.5420  -28.7280 C.3   164  GLN164      0.0905
    178  CD        -1.3230  -24.7600  -30.2300 C.2   164  GLN164      0.2608
    179  OE1       -0.4240  -24.1920  -30.8480 O.2   164  GLN164     -0.2717
    180  NE2       -2.1880  -25.5810  -30.8190 N.am  164  GLN164     -0.0878
@<TRIPOS>BOND
     1     6     5    1
     2     6     7    1
     3     9     7   ar
     4     5     2    1
     5     7     8   ar
     6     2     1    1
     7     2     3    1
     8    26    25    1
     9     3     4    2
    10     3    10   am
    11    25    27    1
    12    25    24    2
    13    10    11    1
    14    24    23    1
    15    11    14    1
    16    11    12    1
    17    17    18    1
    18    17    12   am
    19    14    15    1
    20    14    16    1
    21    23    22    1
    22    18    21    1
    23    18    19    1
    24    12    13    2
    25    22    21    1
    26    19    20    2
    27    78    77    2
    28    77    76    1
    29   118   116   ar
    30   118   120   ar
    31   116   115   ar
    32   121   120    1
    33    76    79    1
    34    76    75    1
    35    28    29    1
    36    79    80    1
    37    31    30    2
    38   120   119   ar
    39    65    63   ar
    40   110   111    1
    41    75    68   am
    42   115   114    1
    43   115   117   ar
    44    30    29    1
    45    30    33   am
    46    29    32    1
    47    49    48    1
    48    69    68    2
    49   114   111    1
    50    80    81    1
    51   119   117   ar
    52    68    67    1
    53    63    62    1
    54    63    64   ar
    55   111   112    1
    56    81    82    1
    57   113   112    2
    58    62    59    1
    59    48    45    1
    60    33    34    1
    61    34    35    1
    62    34    37    1
    63    67    66    1
    64    67    70    1
    65    66    60   am
    66    35    36    2
    67    44    45    1
    68    73    72    2
    69    82    83    1
    70    37    38    1
    71    59    60    1
    72    59    58    1
    73    45    46    1
    74    60    61    2
    75    57    56    2
    76    70    71    1
    77    71    72    1
    78    72    74   am
    79   179   178    2
    80   180   178   am
    81    58    56   am
    82    53    52    2
    83    56    55    1
    84    46    50   am
    85    46    47    2
    86    38    40   ar
    87    38    39   ar
    88    50    51    1
    89   178   177    1
    90   128   126    1
    91    40    42   ar
    92    52    51    1
    93    52    54   am
    94    55    54    1
    95    39    41   ar
    96   122   123    1
    97   127   126    1
    98   126   123    1
    99    42    43   ar
   100   177   176    1
   101   125   124    2
   102   123   124    1
   103   176   173    1
   104    41    43   ar
   105    93    92    1
   106   124   129   am
   107    92    94    1
   108    92    91    2
   109   173   174    1
   110   173   172    1
   111    90    91    1
   112    90    89    1
   113   174   175    2
   114   129   130    1
   115   135   136    2
   116   135   134    1
   117   143   141    1
   118   154   152    1
   119   142   141    1
   120   133   134    1
   121   133   131   am
   122   130   131    1
   123    88    89    1
   124    88    85    1
   125   109   107    1
   126   141   138    1
   127   131   132    2
   128   152   153    1
   129   152   149    1
   130   108   107    1
   131    84    85    1
   132   104   103    1
   133   104   107    1
   134   104   105    1
   135    87    86    2
   136    85    86    1
   137    86    95   am
   138   149   148    1
   139   149   150    1
   140   138   137    1
   141   138   139    1
   142   106   105    2
   143   151   150    2
   144    95    96    1
   145   140   139    2
   146    97    96    1
   147    97    98    2
   148   139   144   am
   149    96    99    1
   150   101   100    1
   151   144   145    1
   152    99   100    1
   153   159   160    1
   154   159   156    1
   155   145   146    1
   156   100   102    1
   157   147   146    2
   158   155   156    1
   159   156   157    1
   160   157   161   am
   161   157   158    2
   162   161   162    1
   163   162   163    1
   164   162   165    1
   165   163   164    2
   166   165   166    1
   167   166   167   ar
   168   166   168   ar
   169   167   169   ar
   170   168   170   ar
   171   169   171   ar
   172   170   171   ar
