@<TRIPOS>MOLECULE
tmp/2uzhC01.pdb
 116 112 0 0 0
SMALL
GASTEIGER

@<TRIPOS>ATOM
      1  N         59.0590   56.8030   17.6710 N.3    99  VAL99      -0.1245
      2  CA        58.2660   56.4290   16.5210 C.3    99  VAL99       0.1561
      3  C         58.7470   55.0550   16.0600 C.2    99  VAL99       0.2260
      4  O         59.9480   54.7900   16.0170 O.2    99  VAL99      -0.2867
      5  CB        58.3490   57.5000   15.4000 C.3    99  VAL99       0.0252
      6  CG1       57.6200   57.0420   14.1210 C.3    99  VAL99       0.0019
      7  CG2       57.7530   58.8410   15.8980 C.3    99  VAL99       0.0019
      8  N         58.4520   52.5230   12.9620 N.3   101  GLY101     -0.1210
      9  CA        58.0610   52.4300   11.5420 C.3   101  GLY101      0.1956
     10  C         59.2350   52.5970   10.5870 C.2   101  GLY101      0.2612
     11  O         60.3080   53.0370   10.9970 O.2   101  GLY101     -0.2717
     12  N         59.0250   52.2400    9.3200 N.am  102  ASN102     -0.1960
     13  CA        60.0720   52.2800    8.3010 C.3   102  ASN102      0.1819
     14  C         60.2380   53.6660    7.6600 C.2   102  ASN102      0.2621
     15  O         61.3540   54.1830    7.5470 O.2   102  ASN102     -0.2715
     16  CB        59.7950   51.2360    7.2080 C.3   102  ASN102      0.1195
     17  CG        59.6090   49.8260    7.7580 C.2   102  ASN102      0.2630
     18  OD1       60.0440   49.4990    8.8710 O.2   102  ASN102     -0.2716
     19  ND2       58.9670   48.9720    6.9620 N.am  102  ASN102     -0.0877
     20  N         59.1250   54.2500    7.2230 N.am  103  ARG103     -0.1964
     21  CA        59.1300   55.5660    6.5720 C.3   103  ARG103      0.1714
     22  C         58.1340   56.4730    7.2890 C.2   103  ARG103      0.2458
     23  O         57.0990   55.9950    7.7390 O.2   103  ARG103     -0.2730
     24  CB        58.7450   55.5080    5.0760 C.3   103  ARG103      0.0347
     25  CG        59.2470   54.3330    4.2080 C.3   103  ARG103      0.0492
     26  CD        60.7650   54.1170    4.1770 C.3   103  ARG103      0.2205
     27  NE        61.5240   55.2520    3.6450 N.pl3 103  ARG103     -0.0865
     28  CZ        62.7130   55.1560    3.0460 C.cat 103  ARG103      0.5346
     29  NH1       63.2920   53.9680    2.8700 N.pl3 103  ARG103      0.1354
     30  NH2       63.3210   56.2530    2.6060 N.pl3 103  ARG103      0.1354
     31  N         58.4320   57.7890    7.3960 N.am  104  PRO104     -0.2716
     32  CA        59.6450   58.4760    6.9440 C.3   104  PRO104      0.1536
     33  C         60.8160   58.2380    7.8910 C.2   104  PRO104      0.2598
     34  O         60.6260   57.6750    8.9710 O.2   104  PRO104     -0.2715
     35  CB        59.2410   59.9500    7.0050 C.3   104  PRO104      0.0310
     36  CG        58.2860   60.0170    8.1500 C.3   104  PRO104      0.0237
     37  CD        57.4850   58.7270    8.0360 C.3   104  PRO104      0.0939
     38  N         62.0100   58.6700    7.4870 N.am  105  LYS105     -0.1964
     39  CA        63.1770   58.6400    8.3570 C.3   105  LYS105      0.1728
     40  C         63.1720   59.8620    9.2730 C.2   105  LYS105      0.2616
     41  O         63.0640   61.0000    8.8300 O.2   105  LYS105     -0.2715
     42  CB        64.4890   58.5200    7.5610 C.3   105  LYS105      0.0311
     43  CG        64.6210   57.1980    6.7800 C.3   105  LYS105      0.0038
     44  CD        64.7390   55.9880    7.7240 C.3   105  LYS105      0.0206
     45  CE        64.4510   54.6820    7.0070 C.3   105  LYS105      0.1093
     46  NZ        64.2300   53.5780    7.9860 N.3   105  LYS105     -0.1314
     47  N         63.2520   59.6010   10.5690 N.am  106  VAL106     -0.1963
     48  CA        63.0900   60.6550   11.5600 C.3   106  VAL106      0.1727
     49  C         64.4310   61.3410   11.7690 C.2   106  VAL106      0.2617
     50  O         64.4770   62.5620   11.9390 O.2   106  VAL106     -0.2715
     51  CB        62.4890   60.1080   12.9110 C.3   106  VAL106      0.0290
     52  CG1       62.4330   61.2060   13.9630 C.3   106  VAL106      0.0023
     53  CG2       61.0950   59.4890   12.6880 C.3   106  VAL106      0.0023
     54  N         65.5080   60.5480   11.7430 N.am  107  GLY107     -0.1941
     55  CA        66.8790   61.0290   11.9390 C.3   107  GLY107      0.1998
     56  C         67.2060   62.4240   11.4100 C.2   107  GLY107      0.2480
     57  O         67.6060   63.3020   12.1960 O.2   107  GLY107     -0.2729
     58  N         67.0420   62.6460   10.0840 N.am  108  PRO108     -0.2726
     59  CA        67.3500   63.9570    9.4820 C.3   108  PRO108      0.1402
     60  C         66.5770   65.1290   10.1000 C.2   108  PRO108      0.2269
     61  O         67.1080   66.2260   10.1910 O.2   108  PRO108     -0.2865
     62  CB        66.9550   63.7690    8.0140 C.3   108  PRO108      0.0296
     63  CG        67.0640   62.2900    7.7880 C.3   108  PRO108      0.0237
     64  CD        66.5870   61.6790    9.0640 C.3   108  PRO108      0.0939
     65  N         65.1010   65.0150   13.3230 N.3   110  ARG110     -0.1245
     66  CA        64.9400   64.6970   14.7470 C.3   110  ARG110      0.1563
     67  C         65.0870   65.9050   15.6660 C.2   110  ARG110      0.2260
     68  O         64.2590   66.1200   16.5590 O.2   110  ARG110     -0.2867
     69  CB        65.9120   63.5850   15.1650 C.3   110  ARG110      0.0307
     70  CG        65.5890   62.9510   16.5110 C.3   110  ARG110      0.0489
     71  CD        66.7080   62.0170   17.0060 C.3   110  ARG110      0.2205
     72  NE        67.9830   62.7180   17.1570 N.pl3 110  ARG110     -0.0865
     73  CZ        68.3060   63.4900   18.1830 C.cat 110  ARG110      0.5346
     74  NH1       67.4570   63.6690   19.1830 N.pl3 110  ARG110      0.1354
     75  NH2       69.4850   64.0890   18.2110 N.pl3 110  ARG110      0.1354
     76  N         62.9330   59.7660   19.3330 N.3   128  SER128     -0.1202
     77  CA        63.7200   58.6590   18.8120 C.3   128  SER128      0.2020
     78  C         62.8820   57.8880   17.8210 C.2   128  SER128      0.2619
     79  O         61.6850   58.1470   17.6650 O.2   128  SER128     -0.2717
     80  CB        64.1960   57.7310   19.9490 C.3   128  SER128      0.2103
     81  OG        63.1520   57.5070   20.8720 O.3   128  SER128     -0.2182
     82  N         63.5210   56.9490   17.1300 N.am  129  ALA129     -0.1965
     83  CA        62.8350   56.1410   16.1360 C.3   129  ALA129      0.1728
     84  C         63.4570   54.7630   16.0880 C.2   129  ALA129      0.2617
     85  O         64.6180   54.5840   16.4480 O.2   129  ALA129     -0.2715
     86  CB        62.8880   56.8030   14.7620 C.3   129  ALA129      0.0334
     87  N         62.6640   53.7880   15.6620 N.am  130  THR130     -0.1937
     88  CA        63.1480   52.4430   15.4110 C.3   130  THR130      0.2028
     89  C         62.3220   51.8620   14.2700 C.2   130  THR130      0.2642
     90  O         61.1490   52.2460   14.0810 O.2   130  THR130     -0.2714
     91  CB        63.0870   51.5650   16.7000 C.3   130  THR130      0.1808
     92  OG1       63.5850   50.2560   16.4210 O.3   130  THR130     -0.2208
     93  CG2       61.6600   51.4140   17.2200 C.3   130  THR130      0.0379
     94  N         62.9470   51.0010   13.4660 N.am  131  THR131     -0.1950
     95  CA        62.2100   50.1720   12.5140 C.3   131  THR131      0.1897
     96  C         61.9230   48.8430   13.2000 C.2   131  THR131      0.2313
     97  O         62.3860   48.5980   14.3140 O.2   131  THR131     -0.2863
     98  CB        62.9880   49.8900   11.1860 C.3   131  THR131      0.1794
     99  OG1       64.0640   48.9830   11.4290 O.3   131  THR131     -0.2208
    100  CG2       63.5330   51.1620   10.5460 C.3   131  THR131      0.0378
    101  N         62.6460   45.8720   11.5480 N.3   133  ASP133     -0.1239
    102  CA        63.4440   44.8800   10.8130 C.3   133  ASP133      0.1674
    103  C         62.5770   43.9620    9.9360 C.2   133  ASP133      0.2266
    104  O         62.8630   42.7660    9.8070 O.2   133  ASP133     -0.2867
    105  CB        64.2920   44.0410   11.7860 C.3   133  ASP133      0.1410
    106  CG        65.7460   44.4420   11.7890 C.2   133  ASP133      0.3668
    107  OD1       66.2740   44.7600   12.8800 O.co2 133  ASP133     -0.2456
    108  OD2       66.3600   44.4290   10.6970 O.co2 133  ASP133     -0.2456
    109  N         52.1100   53.0760   11.2370 N.3   144  LEU144     -0.1245
    110  CA        53.0750   53.7200   12.1470 C.3   144  LEU144      0.1561
    111  C         52.5620   53.6130   13.5680 C.2   144  LEU144      0.2260
    112  O         51.3550   53.7590   13.8060 O.2   144  LEU144     -0.2867
    113  CB        53.2170   55.2010   11.7910 C.3   144  LEU144      0.0270
    114  CG        54.4440   55.8290   11.1360 C.3   144  LEU144      0.0019
    115  CD1       55.2420   54.8860   10.2650 C.3   144  LEU144      0.0001
    116  CD2       54.0080   57.0780   10.3500 C.3   144  LEU144      0.0001
@<TRIPOS>BOND
     1    30    28    1
     2    29    28    1
     3    28    27    2
     4    27    26    1
     5    26    25    1
     6    25    24    1
     7    24    21    1
     8    21    20    1
     9    21    22    1
    10    43    42    1
    11    43    44    1
    12    32    35    1
    13    32    31    1
    14    32    33    1
    15    19    17   am
    16    35    36    1
    17    45    44    1
    18    45    46    1
    19    16    17    1
    20    16    13    1
    21    20    14   am
    22    22    31   am
    23    22    23    2
    24    31    37    1
    25    38    33   am
    26    38    39    1
    27    15    14    2
    28    42    39    1
    29    14    13    1
    30    17    18    2
    31    63    62    1
    32    63    64    1
    33    33    34    2
    34    62    59    1
    35    37    36    1
    36    13    12    1
    37    39    40    1
    38    41    40    2
    39    64    58    1
    40    40    47   am
    41    12    10   am
    42    59    58    1
    43    59    60    1
    44   104   103    2
    45   103   102    1
    46    58    56   am
    47    60    61    2
    48   115   114    1
    49   116   114    1
    50   100    98    1
    51    47    48    1
    52    10    11    2
    53    10     9    1
    54   108   106   ar
    55   102   101    1
    56   102   105    1
    57   114   113    1
    58    98    99    1
    59    98    95    1
    60   109   110    1
    61    56    55    1
    62    56    57    2
    63     9     8    1
    64    48    49    1
    65    48    51    1
    66    54    49   am
    67    54    55    1
    68    49    50    2
    69   105   106    1
    70   106   107   ar
    71   113   110    1
    72   110   111    1
    73    95    96    1
    74    95    94    1
    75    53    51    1
    76    51    52    1
    77    96    97    2
    78    65    66    1
    79    94    89   am
    80   111   112    2
    81    90    89    2
    82     6     5    1
    83    89    88    1
    84    66    69    1
    85    66    67    1
    86    86    83    1
    87    69    70    1
    88     5     7    1
    89     5     2    1
    90    88    87    1
    91    88    91    1
    92    87    84   am
    93    67    68    2
    94     4     3    2
    95     3     2    1
    96    84    83    1
    97    84    85    2
    98    83    82    1
    99    92    91    1
   100    70    71    1
   101     2     1    1
   102    91    93    1
   103    71    72    1
   104    82    78   am
   105    72    73    2
   106    79    78    2
   107    78    77    1
   108    73    75    1
   109    73    74    1
   110    77    76    1
   111    77    80    1
   112    80    81    1
