@<TRIPOS>MOLECULE
tmp/2uzhC00.pdb
 88 85 0 0 0
SMALL
GASTEIGER

@<TRIPOS>ATOM
      1  N         50.6010   55.1550   24.0390 N.3     8  THR8       -0.1203
      2  CA        50.9410   54.5430   22.7420 C.3     8  THR8        0.1994
      3  C         49.8110   54.8150   21.7780 C.2     8  THR8        0.2618
      4  O         48.6710   55.0130   22.1920 O.2     8  THR8       -0.2717
      5  CB        51.1450   53.0040   22.8130 C.3     8  THR8        0.1784
      6  OG1       49.8640   52.3660   22.8540 O.3     8  THR8       -0.2211
      7  CG2       51.9090   52.6210   24.0470 C.3     8  THR8        0.0376
      8  N         50.1390   54.8240   20.4900 N.am    9  ASP9       -0.1959
      9  CA        49.1660   55.0280   19.4290 C.3     9  ASP9        0.1840
     10  C         49.6380   54.3100   18.1650 C.2     9  ASP9        0.2622
     11  O         50.8260   54.1670   17.9440 O.2     9  ASP9       -0.2715
     12  CB        48.9750   56.5180   19.1590 C.3     9  ASP9        0.1450
     13  CG        47.7520   56.8100   18.3170 C.2     9  ASP9        0.3671
     14  OD1       46.6640   56.2370   18.5500 O.co2   9  ASP9       -0.2456
     15  OD2       47.8610   57.6270   17.3970 O.co2   9  ASP9       -0.2456
     16  N         48.6940   53.8620   17.3470 N.am   10  VAL10      -0.1963
     17  CA        48.9900   53.0870   16.1330 C.3    10  VAL10       0.1727
     18  C         47.9960   53.4850   15.0600 C.2    10  VAL10       0.2616
     19  O         46.7830   53.4460   15.2930 O.2    10  VAL10      -0.2715
     20  CB        48.8430   51.5350   16.3390 C.3    10  VAL10       0.0290
     21  CG1       49.2040   50.7830   15.0450 C.3    10  VAL10       0.0023
     22  CG2       49.7020   51.0300   17.4720 C.3    10  VAL10       0.0023
     23  N         48.4920   53.8760   13.8910 N.am   11  HIS11      -0.1973
     24  CA        47.6010   54.0490   12.7280 C.3    11  HIS11       0.1656
     25  C         48.1050   53.4230   11.4260 C.2    11  HIS11       0.2291
     26  O         49.3130   53.3580   11.2030 O.2    11  HIS11      -0.2864
     27  CB        47.1750   55.5050   12.5630 C.3    11  HIS11       0.0771
     28  CG        46.2990   55.9770   13.6790 C.ar   11  HIS11       0.0820
     29  ND1       45.0870   55.3840   13.9690 N.ar   11  HIS11      -0.2267
     30  CD2       46.4730   56.9500   14.6030 C.ar   11  HIS11       0.1154
     31  CE1       44.5430   55.9810   15.0130 C.ar   11  HIS11       0.1986
     32  NE2       45.3650   56.9310   15.4190 N.ar   11  HIS11      -0.2212
     33  N         49.6220   62.1180   19.2460 N.3    43  HIS43      -0.1241
     34  CA        48.5860   61.3670   19.9680 C.3    43  HIS43       0.1621
     35  C         49.1790   60.5940   21.1460 C.2    43  HIS43       0.2264
     36  O         48.6700   60.6680   22.2580 O.2    43  HIS43      -0.2867
     37  CB        47.8320   60.4200   19.0190 C.3    43  HIS43       0.0745
     38  CG        47.1060   61.1220   17.9160 C.ar   43  HIS43       0.0817
     39  ND1       46.2870   60.4600   17.0230 N.ar   43  HIS43      -0.2268
     40  CD2       47.0700   62.4290   17.5590 C.ar   43  HIS43       0.1154
     41  CE1       45.7900   61.3260   16.1590 C.ar   43  HIS43       0.1986
     42  NE2       46.2550   62.5250   16.4570 N.ar   43  HIS43      -0.2212
     43  N         48.4570   61.3400   25.1210 N.3    47  ASP47      -0.1239
     44  CA        48.1190   60.2410   26.0260 C.3    47  ASP47       0.1674
     45  C         49.0620   60.1190   27.2160 C.2    47  ASP47       0.2266
     46  O         48.6020   59.8630   28.3160 O.2    47  ASP47      -0.2867
     47  CB        48.0340   58.8880   25.2820 C.3    47  ASP47       0.1410
     48  CG        46.5770   58.4830   24.9350 C.2    47  ASP47       0.3668
     49  OD1       45.6490   59.2820   25.1880 O.co2  47  ASP47      -0.2456
     50  OD2       46.3590   57.3540   24.4180 O.co2  47  ASP47      -0.2456
     51  N         42.1750   59.8620   28.6570 N.3    57  ASP57      -0.1225
     52  CA        42.8910   59.6560   27.4100 C.3    57  ASP57       0.1805
     53  C         42.2500   60.5270   26.3320 C.2    57  ASP57       0.2598
     54  O         41.3740   61.3460   26.6200 O.2    57  ASP57      -0.2718
     55  CB        42.9200   58.1550   27.0240 C.3    57  ASP57       0.1424
     56  CG        41.5190   57.5040   26.9700 C.2    57  ASP57       0.3668
     57  OD1       40.5180   58.2060   26.7820 O.co2  57  ASP57      -0.2456
     58  OD2       41.4170   56.2680   27.1100 O.co2  57  ASP57      -0.2456
     59  N         42.6880   60.3540   25.0980 N.am   58  LEU58      -0.1966
     60  CA        42.1890   61.1540   23.9760 C.3    58  LEU58       0.1728
     61  C         40.6720   61.1710   23.8550 C.2    58  LEU58       0.2617
     62  O         40.0850   62.2400   23.6580 O.2    58  LEU58      -0.2715
     63  CB        42.8190   60.6660   22.6760 C.3    58  LEU58       0.0311
     64  CG        44.3320   60.8460   22.5890 C.3    58  LEU58       0.0022
     65  CD1       44.8550   60.2640   21.2710 C.3    58  LEU58       0.0001
     66  CD2       44.6790   62.3340   22.7260 C.3    58  LEU58       0.0001
     67  N         40.0440   59.9970   23.9930 N.am   59  GLY59      -0.1940
     68  CA        38.5800   59.8710   23.9260 C.3    59  GLY59       0.2014
     69  C         37.8760   60.6500   25.0130 C.2    59  GLY59       0.2639
     70  O         36.8370   61.2400   24.7850 O.2    59  GLY59      -0.2714
     71  N         38.4550   60.6600   26.2100 N.am   60  THR60      -0.1950
     72  CA        37.9410   61.4660   27.3100 C.3    60  THR60       0.1897
     73  C         37.8720   62.9390   26.9250 C.2    60  THR60       0.2313
     74  O         36.8800   63.5960   27.1690 O.2    60  THR60      -0.2863
     75  CB        38.8430   61.3220   28.5670 C.3    60  THR60       0.1794
     76  OG1       39.1090   59.9370   28.7940 O.3    60  THR60      -0.2208
     77  CG2       38.1950   61.9380   29.8030 C.3    60  THR60       0.0378
     78  N         36.7110   63.1930   22.4890 N.3    63  GLY63      -0.1210
     79  CA        35.5360   62.4090   22.0880 C.3    63  GLY63       0.1956
     80  C         35.7280   61.6570   20.7760 C.2    63  GLY63       0.2612
     81  O         36.8630   61.4870   20.3140 O.2    63  GLY63      -0.2717
     82  N         34.6170   61.2170   20.1790 N.am   64  THR64      -0.1952
     83  CA        34.6320   60.4400   18.9310 C.3    64  THR64       0.1897
     84  C         34.1290   61.2700   17.7520 C.2    64  THR64       0.2313
     85  O         32.9840   61.7310   17.7540 O.2    64  THR64      -0.2863
     86  CB        33.7430   59.1530   19.0320 C.3    64  THR64       0.1794
     87  OG1       33.9310   58.5150   20.3030 O.3    64  THR64      -0.2208
     88  CG2       34.0540   58.1650   17.8970 C.3    64  THR64       0.0378
@<TRIPOS>BOND
     1    26    25    2
     2    25    24    1
     3    27    24    1
     4    27    28    1
     5    24    23    1
     6    28    29   ar
     7    28    30   ar
     8    23    18   am
     9    29    31   ar
    10    30    32   ar
    11    31    32   ar
    12    21    20    1
    13    18    19    2
    14    18    17    1
    15    17    20    1
    16    17    16    1
    17    41    42   ar
    18    41    39   ar
    19    20    22    1
    20    42    40   ar
    21    39    38   ar
    22    16    10   am
    23    15    13   ar
    24    40    38   ar
    25    84    85    2
    26    84    83    1
    27    88    86    1
    28    38    37    1
    29    11    10    2
    30    10     9    1
    31    13    14   ar
    32    13    12    1
    33    83    86    1
    34    83    82    1
    35    37    34    1
    36    86    87    1
    37    12     9    1
    38    33    34    1
    39     9     8    1
    40    34    35    1
    41    82    80   am
    42    81    80    2
    43     8     3   am
    44    80    79    1
    45    35    36    2
    46    65    64    1
    47     3     4    2
    48     3     2    1
    49    79    78    1
    50    64    63    1
    51    64    66    1
    52    63    60    1
    53     2     5    1
    54     2     1    1
    55     5     6    1
    56     5     7    1
    57    62    61    2
    58    61    60    1
    59    61    67   am
    60    68    67    1
    61    68    69    1
    62    60    59    1
    63    50    48   ar
    64    70    69    2
    65    48    49   ar
    66    48    47    1
    67    69    71   am
    68    59    53   am
    69    43    44    1
    70    47    44    1
    71    44    45    1
    72    71    72    1
    73    53    54    2
    74    53    52    1
    75    57    56   ar
    76    73    74    2
    77    73    72    1
    78    56    55    1
    79    56    58   ar
    80    55    52    1
    81    45    46    2
    82    72    75    1
    83    52    51    1
    84    75    76    1
    85    75    77    1
