@<TRIPOS>MOLECULE
tmp/2uzjA00.pdb
 136 131 0 0 0
SMALL
GASTEIGER

@<TRIPOS>ATOM
      1  N         18.0020    1.5070    8.3610 N.3    17  GLN17      -0.1245
      2  CA        16.5990    1.0550    8.2390 C.3    17  GLN17       0.1566
      3  C         16.2580    0.3120    6.9580 C.2    17  GLN17       0.2260
      4  O         15.1070   -0.1800    6.8210 O.2    17  GLN17      -0.2867
      5  CB        15.6660    2.2340    8.2580 C.3    17  GLN17       0.0367
      6  CG        15.7860    3.1150    9.4510 C.3    17  GLN17       0.0905
      7  CD        14.6570    4.1030    9.4120 C.2    17  GLN17       0.2608
      8  OE1       13.5130    3.7180    9.5890 O.2    17  GLN17      -0.2717
      9  NE2       14.9610    5.3770    9.1150 N.am   17  GLN17      -0.0878
     10  N         12.8960    4.2440   12.8170 N.3    47  CYS47      -0.1221
     11  CA        13.9930    4.7590   13.6760 C.3    47  CYS47       0.1808
     12  C         13.9300    4.1800   15.0740 C.2    47  CYS47       0.2601
     13  O         14.9640    3.9400   15.6930 O.2    47  CYS47      -0.2717
     14  CB        13.9940    6.2830   13.7800 C.3    47  CYS47       0.0970
     15  SG        12.4620    7.0550   14.4000 S.3    47  CYS47      -0.0800
     16  N         12.7050    3.9620   15.5610 N.am   48  VAL48      -0.1979
     17  CA        12.5350    3.4150   16.9210 C.3    48  VAL48       0.1595
     18  C         13.1470    2.0080   17.0470 C.2    48  VAL48       0.2287
     19  O         13.8460    1.7090   18.0310 O.2    48  VAL48      -0.2864
     20  CB        11.0900    3.4840   17.3770 C.3    48  VAL48       0.0276
     21  CG1       10.9170    2.7420   18.7300 C.3    48  VAL48       0.0022
     22  CG2       10.6800    4.9640   17.5210 C.3    48  VAL48       0.0022
     23  N         -2.9000    0.2510   12.0470 N.3    74  SER74      -0.1217
     24  CA        -3.9790    1.2450   12.0370 C.3    74  SER74       0.1889
     25  C         -4.7650    1.1790   10.7300 C.2    74  SER74       0.2288
     26  O         -4.1720    1.0270    9.6370 O.2    74  SER74      -0.2866
     27  CB        -3.4250    2.6560   12.2510 C.3    74  SER74       0.2089
     28  OG        -4.4120    3.6370   11.9260 O.3    74  SER74      -0.2183
     29  N          4.7620   -1.7490   18.0800 N.3   128  ASP128     -0.1225
     30  CA         3.5560   -1.3610   17.3360 C.3   128  ASP128      0.1805
     31  C          3.9100   -0.4310   16.1650 C.2   128  ASP128      0.2598
     32  O          3.2700    0.6090   15.9450 O.2   128  ASP128     -0.2718
     33  CB         2.5230   -0.7090   18.2410 C.3   128  ASP128      0.1424
     34  CG         2.1150   -1.6070   19.3790 C.2   128  ASP128      0.3668
     35  OD1        1.1210   -2.3090   19.2080 O.co2 128  ASP128     -0.2456
     36  OD2        2.8040   -1.6120   20.4210 O.co2 128  ASP128     -0.2456
     37  N          4.9520   -0.8040   15.4350 N.am  129  MET129     -0.1965
     38  CA         5.4060   -0.0050   14.3000 C.3   129  MET129      0.1736
     39  C          4.3250    0.1900   13.2260 C.2   129  MET129      0.2616
     40  O          3.7070   -0.7550   12.7680 O.2   129  MET129     -0.2715
     41  CB         6.6470   -0.6370   13.6920 C.3   129  MET129      0.0427
     42  CG         7.3850    0.2810   12.7160 C.3   129  MET129      0.0599
     43  SD         8.1400    1.7470   13.4940 S.3   129  MET129     -0.1393
     44  CE         9.3810    0.9960   14.5260 C.3   129  MET129      0.0692
     45  N          4.1130    1.4440   12.8640 N.am  130  ASP130     -0.1971
     46  CA         3.2070    1.8240   11.7930 C.3   130  ASP130      0.1709
     47  C          4.0310    1.7780   10.5010 C.2   130  ASP130      0.2293
     48  O          4.5800    2.7950   10.0520 O.2   130  ASP130     -0.2864
     49  CB         2.6360    3.2220   12.0600 C.3   130  ASP130      0.1436
     50  CG         1.5720    3.6170   11.0470 C.2   130  ASP130      0.3671
     51  OD1        0.7530    2.7500   10.6710 O.co2 130  ASP130     -0.2456
     52  OD2        1.5720    4.7920   10.6250 O.co2 130  ASP130     -0.2456
     53  N          8.5510    5.0980    5.1340 N.3   134  SER134     -0.1202
     54  CA         9.1060    5.3470    6.4670 C.3   134  SER134      0.2020
     55  C          8.1200    4.7340    7.4720 C.2   134  SER134      0.2619
     56  O          6.9240    4.5670    7.1660 O.2   134  SER134     -0.2717
     57  CB         9.2920    6.8420    6.7270 C.3   134  SER134      0.2103
     58  OG         8.0370    7.4900    6.6670 O.3   134  SER134     -0.2182
     59  N          8.6220    4.4130    8.6620 N.am  135  SER135     -0.1937
     60  CA         7.8390    3.6650    9.6480 C.3   135  SER135      0.2055
     61  C          7.9160    4.3700   11.0020 C.2   135  SER135      0.2644
     62  O          9.0180    4.6660   11.4930 O.2   135  SER135     -0.2714
     63  CB         8.3620    2.2240    9.7500 C.3   135  SER135      0.2130
     64  OG         8.2590    1.5350    8.5130 O.3   135  SER135     -0.2179
     65  N          6.7440    4.6500   11.5740 N.am  136  GLY136     -0.1939
     66  CA         6.6660    5.4070   12.8250 C.3   136  GLY136      0.2014
     67  C          6.1430    4.6370   14.0280 C.2   136  GLY136      0.2640
     68  O          5.2940    3.7700   13.8970 O.2   136  GLY136     -0.2714
     69  N          6.6510    4.9700   15.2120 N.am  137  SER137     -0.1935
     70  CA         6.1680    4.3620   16.4660 C.3   137  SER137      0.2055
     71  C          6.0710    5.4570   17.5260 C.2   137  SER137      0.2643
     72  O          6.7510    6.4960   17.4230 O.2   137  SER137     -0.2714
     73  CB         7.1110    3.2200   16.9180 C.3   137  SER137      0.2130
     74  OG         6.9590    2.8560   18.2890 O.3   137  SER137     -0.2179
     75  N          5.2340    5.2330   18.5420 N.am  138  ALA138     -0.1963
     76  CA         5.1250    6.1550   19.6820 C.3   138  ALA138      0.1728
     77  C          6.4570    6.3360   20.4310 C.2   138  ALA138      0.2616
     78  O          6.6500    7.3430   21.1340 O.2   138  ALA138     -0.2715
     79  CB         4.0600    5.6870   20.6500 C.3   138  ALA138      0.0334
     80  N          7.3450    5.3390   20.2980 N.am  139  GLY139     -0.1955
     81  CA         8.7060    5.4330   20.8540 C.3   139  GLY139      0.1869
     82  C          8.8240    4.9480   22.2950 C.2   139  GLY139      0.2309
     83  O          8.5310    3.7710   22.6170 O.2   139  GLY139     -0.2863
     84  N         14.5080   10.3410   22.3160 N.3   187  GLN187     -0.1231
     85  CA        13.7370   10.8650   21.2020 C.3   187  GLN187      0.1698
     86  C         13.3040   12.3100   21.4560 C.2   187  GLN187      0.2593
     87  O         13.2680   12.7620   22.5970 O.2   187  GLN187     -0.2718
     88  CB        12.4900    9.9860   20.9660 C.3   187  GLN187      0.0381
     89  CG        11.4420   10.1150   22.0540 C.3   187  GLN187      0.0905
     90  CD        10.2890    9.1210   21.8270 C.2   187  GLN187      0.2608
     91  OE1       10.5250    7.9130   21.6120 O.2   187  GLN187     -0.2717
     92  NE2        9.0530    9.6240   21.8500 N.am  187  GLN187     -0.0878
     93  N         12.9600   13.0050   20.3750 N.am  188  GLY188     -0.1942
     94  CA        12.4380   14.3700   20.4680 C.3   188  GLY188      0.2014
     95  C         11.7970   14.7680   19.1550 C.2   188  GLY188      0.2638
     96  O         11.8480   14.0210   18.1520 O.2   188  GLY188     -0.2714
     97  N         11.2260   15.9660   19.1720 N.am  189  VAL189     -0.1977
     98  CA        10.4260   16.4780   18.0820 C.3   189  VAL189      0.1596
     99  C         10.7780   17.9460   17.7770 C.2   189  VAL189      0.2287
    100  O         11.1040   18.7300   18.6940 O.2   189  VAL189     -0.2864
    101  CB         8.9230   16.3780   18.4670 C.3   189  VAL189      0.0276
    102  CG1        8.0010   16.8020   17.2890 C.3   189  VAL189      0.0022
    103  CG2        8.5880   14.9590   18.9270 C.3   189  VAL189      0.0022
    104  N          9.5000   14.1870   14.2830 N.3   194  GLY194     -0.1210
    105  CA        10.0330   13.4910   15.4750 C.3   194  GLY194      0.1956
    106  C         10.9380   12.3220   15.0860 C.2   194  GLY194      0.2612
    107  O         10.6950   11.6390   14.0760 O.2   194  GLY194     -0.2717
    108  N         11.9810   12.0740   15.8920 N.am  195  HIS195     -0.1961
    109  CA        12.9590   11.0370   15.5400 C.3   195  HIS195      0.1787
    110  C         13.4820   10.4310   16.8370 C.2   195  HIS195      0.2620
    111  O         13.5230   11.1220   17.8980 O.2   195  HIS195     -0.2715
    112  CB        14.0940   11.6530   14.7080 C.3   195  HIS195      0.0785
    113  CG        15.1250   10.6760   14.2010 C.ar  195  HIS195      0.0821
    114  ND1       14.8230    9.6660   13.3130 N.ar  195  HIS195     -0.2267
    115  CD2       16.4630   10.5870   14.4240 C.ar  195  HIS195      0.1154
    116  CE1       15.9220    8.9900   13.0190 C.ar  195  HIS195      0.1986
    117  NE2       16.9340    9.5280   13.6800 N.ar  195  HIS195     -0.2212
    118  N         13.8170    9.1330   16.7400 N.am  196  ALA196     -0.1977
    119  CA        14.4550    8.3800   17.8390 C.3   196  ALA196      0.1597
    120  C         15.9030    8.0100   17.5010 C.2   196  ALA196      0.2287
    121  O         16.2680    7.8010   16.3340 O.2   196  ALA196     -0.2864
    122  CB        13.6890    7.0870   18.1880 C.3   196  ALA196      0.0319
    123  N         21.1060    6.3460   11.0830 N.3   214  TRP214     -0.1241
    124  CA        21.1570    6.5430    9.6370 C.3   214  TRP214      0.1605
    125  C         22.4660    5.9510    9.0470 C.2   214  TRP214      0.2264
    126  O         22.9620    6.3880    7.9940 O.2   214  TRP214     -0.2867
    127  CB        21.0480    8.0350    9.3470 C.3   214  TRP214      0.0550
    128  CG        19.7110    8.6620    9.7180 C.ar  214  TRP214      0.0003
    129  CD1       18.4680    8.1000    9.5920 C.ar  214  TRP214      0.0946
    130  CD2       19.5010   10.0110   10.1750 C.ar  214  TRP214      0.0152
    131  NE1       17.4910    9.0110    9.9670 N.ar  214  TRP214     -0.2442
    132  CE2       18.0980   10.1880   10.3320 C.ar  214  TRP214      0.0810
    133  CE3       20.3640   11.0910   10.4960 C.ar  214  TRP214      0.0012
    134  CZ2       17.5330   11.3990   10.8030 C.ar  214  TRP214      0.0191
    135  CZ3       19.7970   12.2980   10.9430 C.ar  214  TRP214      0.0001
    136  CH2       18.3960   12.4370   11.1040 C.ar  214  TRP214      0.0015
@<TRIPOS>BOND
     1    53    54    1
     2    54    57    1
     3    54    55    1
     4    58    57    1
     5     4     3    2
     6     3     2    1
     7    56    55    2
     8    55    59   am
     9   126   125    2
    10     2     5    1
    11     2     1    1
    12     5     6    1
    13    64    63    1
    14    59    60    1
    15   125   124    1
    16     9     7   am
    17   127   124    1
    18   127   128    1
    19     7     6    1
    20     7     8    2
    21   129   128   ar
    22   129   131   ar
    23   124   123    1
    24    26    25    2
    25    60    63    1
    26    60    61    1
    27   128   130   ar
    28   131   132   ar
    29    48    47    2
    30   130   132   ar
    31   130   133   ar
    32   132   134   ar
    33   133   135   ar
    34    47    46    1
    35    52    50   ar
    36    51    50   ar
    37    25    24    1
    38   134   136   ar
    39   135   136   ar
    40    61    62    2
    41    61    65   am
    42    50    49    1
    43    65    66    1
    44    46    49    1
    45    46    45    1
    46    28    27    1
    47    24    23    1
    48    24    27    1
    49    42    43    1
    50    42    41    1
    51    40    39    2
    52    10    11    1
    53    66    67    1
    54    45    39   am
    55   116   114   ar
    56   116   117   ar
    57    39    38    1
    58   114   113   ar
    59    43    44    1
    60    11    14    1
    61    11    12    1
    62   117   115   ar
    63    41    38    1
    64    14    15    1
    65    68    67    2
    66    67    69   am
    67   107   106    2
    68   113   115   ar
    69   113   112    1
    70   104   105    1
    71    38    37    1
    72   112   109    1
    73    12    16   am
    74    12    13    2
    75   106   105    1
    76   106   108   am
    77    69    70    1
    78    37    31   am
    79   109   108    1
    80   109   110    1
    81    16    17    1
    82    32    31    2
    83    31    30    1
    84   121   120    2
    85    70    73    1
    86    70    71    1
    87   118   110   am
    88   118   119    1
    89   110   111    2
    90    73    74    1
    91    17    18    1
    92    17    20    1
    93    18    19    2
    94   102   101    1
    95    30    29    1
    96    30    33    1
    97    20    22    1
    98    20    21    1
    99    72    71    2
   100   120   119    1
   101    71    75   am
   102    99    98    1
   103    99   100    2
   104   119   122    1
   105    98   101    1
   106    98    97    1
   107    96    95    2
   108    33    34    1
   109   101   103    1
   110    75    76    1
   111    95    97   am
   112    95    94    1
   113    35    34   ar
   114    34    36   ar
   115    76    77    1
   116    76    79    1
   117    80    77   am
   118    80    81    1
   119    93    94    1
   120    93    86   am
   121    77    78    2
   122    81    82    1
   123    88    85    1
   124    88    89    1
   125    85    86    1
   126    85    84    1
   127    86    87    2
   128    91    90    2
   129    90    92   am
   130    90    89    1
   131    82    83    2
