@<TRIPOS>MOLECULE
tmp/2uzlA00.pdb
 171 161 0 0 0
SMALL
GASTEIGER

@<TRIPOS>ATOM
      1  N         68.9710   60.3480   30.0940 N.3     8  GLU8       -0.1245
      2  CA        67.6970   60.6350   29.4370 C.3     8  GLU8        0.1567
      3  C         67.4190   59.7130   28.2420 C.2     8  GLU8        0.2260
      4  O         68.3370   59.2230   27.5960 O.2     8  GLU8       -0.2867
      5  CB        67.6020   62.1140   28.9980 C.3     8  GLU8        0.0388
      6  CG        68.7730   62.6760   28.1620 C.3     8  GLU8        0.1160
      7  CD        68.4300   64.0260   27.5240 C.2     8  GLU8        0.3649
      8  OE1       67.2450   64.4220   27.5950 O.co2   8  GLU8       -0.2457
      9  OE2       69.3230   64.6900   26.9470 O.co2   8  GLU8       -0.2457
     10  N         66.6090   59.6340   24.5670 N.3    10  ILE10      -0.1245
     11  CA        66.8190   60.5540   23.4560 C.3    10  ILE10       0.1561
     12  C         66.1110   60.0420   22.2040 C.2    10  ILE10       0.2260
     13  O         66.4050   60.4720   21.0800 O.2    10  ILE10      -0.2867
     14  CB        68.3200   60.8390   23.1980 C.3    10  ILE10       0.0252
     15  CG1       69.1270   59.5390   23.1820 C.3    10  ILE10       0.0019
     16  CG2       68.8470   61.8160   24.2400 C.3    10  ILE10       0.0019
     17  CD1       70.5410   59.6950   22.6810 C.3    10  ILE10       0.0001
     18  N         64.8750   55.1340   18.4130 N.3    13  GLY13      -0.1225
     19  CA        65.4740   54.9200   17.1080 C.3    13  GLY13       0.1811
     20  C         65.0890   53.5230   16.6650 C.2    13  GLY13       0.2280
     21  O         65.6740   52.5350   17.1350 O.2    13  GLY13      -0.2866
     22  N         66.6870   54.4220   22.4130 N.3    18  VAL18      -0.1245
     23  CA        68.0180   54.9740   22.6700 C.3    18  VAL18       0.1561
     24  C         68.0570   55.9000   23.9060 C.2    18  VAL18       0.2260
     25  O         67.1900   56.7610   24.0750 O.2    18  VAL18      -0.2867
     26  CB        68.5970   55.6710   21.4090 C.3    18  VAL18       0.0252
     27  CG1       69.9910   56.2060   21.6830 C.3    18  VAL18       0.0019
     28  CG2       68.6170   54.7000   20.2110 C.3    18  VAL18       0.0019
     29  N         75.7330   56.4970   23.8620 N.3    31  ALA31      -0.1245
     30  CA        74.3400   56.2130   23.5430 C.3    31  ALA31       0.1562
     31  C         74.1110   54.7350   23.7900 C.2    31  ALA31       0.2260
     32  O         74.9270   53.9100   23.4010 O.2    31  ALA31      -0.2867
     33  CB        74.0070   56.5880   22.1180 C.3    31  ALA31       0.0290
     34  N         71.5810   51.5200   23.1620 N.3    33  LYS33      -0.1245
     35  CA        70.4380   51.0220   22.4520 C.3    33  LYS33       0.1561
     36  C         70.0120   49.7490   23.1340 C.2    33  LYS33       0.2260
     37  O         70.6820   48.7270   23.0350 O.2    33  LYS33      -0.2867
     38  CB        70.7490   50.8020   20.9780 C.3    33  LYS33       0.0271
     39  CG        69.5490   50.3690   20.1460 C.3    33  LYS33       0.0035
     40  CD        69.9490   50.1200   18.7110 C.3    33  LYS33       0.0206
     41  CE        70.0060   51.4040   17.9240 C.3    33  LYS33       0.1093
     42  NZ        70.0320   51.0540   16.4880 N.3    33  LYS33      -0.1314
     43  N         73.0400   44.4310   12.5200 N.3    51  GLU51      -0.1245
     44  CA        73.5910   45.6950   13.0010 C.3    51  GLU51       0.1567
     45  C         74.9170   45.4950   13.7100 C.2    51  GLU51       0.2260
     46  O         75.8770   46.1470   13.3520 O.2    51  GLU51      -0.2867
     47  CB        72.6020   46.4960   13.8930 C.3    51  GLU51       0.0388
     48  CG        73.2670   47.8010   14.4460 C.3    51  GLU51       0.1160
     49  CD        72.3090   48.9580   14.7640 C.2    51  GLU51       0.3649
     50  OE1       71.2500   48.7150   15.3700 O.co2  51  GLU51      -0.2457
     51  OE2       72.6380   50.1280   14.4240 O.co2  51  GLU51      -0.2457
     52  N         78.9690   55.7680   12.6860 N.3    64  VAL64      -0.1245
     53  CA        78.8390   55.6760   14.1220 C.3    64  VAL64       0.1561
     54  C         79.5900   54.4860   14.6940 C.2    64  VAL64       0.2260
     55  O         79.5160   53.3880   14.1870 O.2    64  VAL64      -0.2867
     56  CB        77.3870   55.6800   14.6080 C.3    64  VAL64       0.0252
     57  CG1       76.6570   54.3580   14.2120 C.3    64  VAL64       0.0019
     58  CG2       77.3810   55.9210   16.1130 C.3    64  VAL64       0.0019
     59  N         77.0610   52.9340   21.9180 N.3    80  PHE80      -0.1227
     60  CA        77.6030   53.7120   20.7960 C.3    80  PHE80       0.1736
     61  C         78.2990   54.9760   21.2820 C.2    80  PHE80       0.2595
     62  O         78.0050   55.4840   22.3650 O.2    80  PHE80      -0.2718
     63  CB        76.4800   54.1190   19.8090 C.3    80  PHE80       0.0547
     64  CG        75.9260   52.9830   19.0210 C.ar   80  PHE80      -0.0202
     65  CD1       74.7960   52.2930   19.4660 C.ar   80  PHE80      -0.0042
     66  CD2       76.5180   52.5950   17.8360 C.ar   80  PHE80      -0.0042
     67  CE1       74.2710   51.2170   18.7280 C.ar   80  PHE80      -0.0003
     68  CE2       75.9990   51.5280   17.0920 C.ar   80  PHE80      -0.0003
     69  CZ        74.8850   50.8350   17.5450 C.ar   80  PHE80      -0.0000
     70  N         79.2080   55.5080   20.4830 N.am   81  GLU81      -0.1965
     71  CA        79.6370   56.8640   20.7460 C.3    81  GLU81       0.1733
     72  C         78.3860   57.7800   20.7550 C.2    81  GLU81       0.2616
     73  O         77.3760   57.4970   20.0880 O.2    81  GLU81      -0.2715
     74  CB        80.6730   57.3330   19.7280 C.3    81  GLU81       0.0429
     75  CG        80.1470   57.4990   18.3310 C.3    81  GLU81       0.1163
     76  CD        81.1180   58.2190   17.4180 C.2    81  GLU81       0.3649
     77  OE1       81.6920   59.2570   17.8130 O.co2  81  GLU81      -0.2457
     78  OE2       81.3040   57.7510   16.2880 O.co2  81  GLU81      -0.2457
     79  N         78.4440   58.8540   21.5350 N.am   82  PHE82      -0.1960
     80  CA        77.3190   59.7820   21.6010 C.3    82  PHE82       0.1771
     81  C         77.5420   60.9440   20.6520 C.2    82  PHE82       0.2619
     82  O         78.6190   61.5520   20.6390 O.2    82  PHE82      -0.2715
     83  CB        77.1160   60.3200   23.0110 C.3    82  PHE82       0.0574
     84  CG        75.9790   61.2810   23.1130 C.ar   82  PHE82      -0.0200
     85  CD1       74.6700   60.8100   23.3010 C.ar   82  PHE82      -0.0042
     86  CD2       76.2020   62.6670   22.9850 C.ar   82  PHE82      -0.0042
     87  CE1       73.5940   61.7050   23.3600 C.ar   82  PHE82      -0.0003
     88  CE2       75.1260   63.5680   23.0610 C.ar   82  PHE82      -0.0003
     89  CZ        73.8260   63.0900   23.2570 C.ar   82  PHE82      -0.0000
     90  N         76.5260   61.2520   19.8520 N.am   83  LEU83      -0.1963
     91  CA        76.5820   62.4500   19.0370 C.3    83  LEU83       0.1728
     92  C         75.4010   63.3420   19.3540 C.2    83  LEU83       0.2616
     93  O         74.3320   62.8510   19.7400 O.2    83  LEU83      -0.2715
     94  CB        76.6930   62.1370   17.5400 C.3    83  LEU83       0.0311
     95  CG        78.0240   61.4990   17.1430 C.3    83  LEU83       0.0022
     96  CD1       77.7350   60.0650   16.8530 C.3    83  LEU83       0.0001
     97  CD2       78.6520   62.1770   15.9120 C.3    83  LEU83       0.0001
     98  N         75.6420   64.6430   19.1620 N.am   84  HIS84      -0.1959
     99  CA        74.8240   65.7600   19.6570 C.3    84  HIS84       0.1787
    100  C         73.3630   65.7600   19.2110 C.2    84  HIS84       0.2620
    101  O         72.4730   65.7880   20.0550 O.2    84  HIS84      -0.2715
    102  CB        75.5370   67.0980   19.3330 C.3    84  HIS84       0.0785
    103  CG        74.7110   68.3190   19.5840 C.ar   84  HIS84       0.0821
    104  ND1       74.6950   69.3890   18.7140 N.ar   84  HIS84      -0.2267
    105  CD2       73.8680   68.6400   20.5950 C.ar   84  HIS84       0.1154
    106  CE1       73.8760   70.3170   19.1810 C.ar   84  HIS84       0.1986
    107  NE2       73.3640   69.8900   20.3220 N.ar   84  HIS84      -0.2212
    108  N         73.1180   65.7650   17.8990 N.am   85  GLN85      -0.1963
    109  CA        71.7770   65.5480   17.3670 C.3    85  GLN85       0.1733
    110  C         71.7990   64.8650   15.9980 C.2    85  GLN85       0.2616
    111  O         72.8450   64.6650   15.3950 O.2    85  GLN85      -0.2715
    112  CB        70.9800   66.8620   17.3140 C.3    85  GLN85       0.0408
    113  CG        71.3590   67.8390   16.2110 C.3    85  GLN85       0.0908
    114  CD        70.8010   69.2510   16.4230 C.2    85  GLN85       0.2608
    115  OE1       71.1630   70.1850   15.7030 O.2    85  GLN85      -0.2717
    116  NE2       69.9530   69.4180   17.4240 N.am   85  GLN85      -0.0878
    117  N         70.6250   64.4960   15.5200 N.am   86  ASP86      -0.1971
    118  CA        70.5040   63.9560   14.1910 C.3    86  ASP86       0.1709
    119  C         70.2490   65.0940   13.2170 C.2    86  ASP86       0.2293
    120  O         69.9140   66.1930   13.6280 O.2    86  ASP86      -0.2864
    121  CB        69.4200   62.8710   14.1450 C.3    86  ASP86       0.1436
    122  CG        68.0540   63.3690   14.5380 C.2    86  ASP86       0.3671
    123  OD1       67.6480   64.4580   14.0940 O.co2  86  ASP86      -0.2456
    124  OD2       67.3420   62.6360   15.2460 O.co2  86  ASP86      -0.2456
    125  N         66.5900   67.0800   13.0560 N.3    89  LYS89      -0.1245
    126  CA        66.4830   68.1310   14.0310 C.3    89  LYS89       0.1561
    127  C         67.3480   69.3320   13.6740 C.2    89  LYS89       0.2260
    128  O         66.9120   70.4740   13.8130 O.2    89  LYS89      -0.2867
    129  CB        66.8610   67.5930   15.4100 C.3    89  LYS89       0.0271
    130  CG        66.3900   68.4720   16.5270 C.3    89  LYS89       0.0035
    131  CD        67.3560   68.4870   17.6840 C.3    89  LYS89       0.0206
    132  CE        66.7800   69.2770   18.8540 C.3    89  LYS89       0.1093
    133  NZ        65.5290   68.6520   19.3920 N.3    89  LYS89      -0.1314
    134  N         67.0710   61.4660    9.9850 N.3   131  GLN131     -0.1231
    135  CA        67.0290   61.0650   11.3910 C.3   131  GLN131      0.1698
    136  C         68.0260   59.9350   11.7890 C.2   131  GLN131      0.2592
    137  O         68.3110   59.7110   12.9720 O.2   131  GLN131     -0.2718
    138  CB        65.5820   60.7310   11.7800 C.3   131  GLN131      0.0381
    139  CG        65.2490   59.2740   11.9010 C.3   131  GLN131      0.0905
    140  CD        63.7520   59.0450   12.1900 C.2   131  GLN131      0.2608
    141  OE1       62.8720   59.5250   11.4400 O.2   131  GLN131     -0.2717
    142  NE2       63.4630   58.2970   13.2570 N.am  131  GLN131     -0.0878
    143  N         68.5350   59.2270   10.7830 N.am  132  ASN132     -0.1974
    144  CA        69.5230   58.1820   10.9710 C.3   132  ASN132      0.1688
    145  C         70.9320   58.6830   10.7030 C.2   132  ASN132      0.2292
    146  O         71.8700   57.8940   10.6920 O.2   132  ASN132     -0.2864
    147  CB        69.2380   57.0010   10.0540 C.3   132  ASN132      0.1181
    148  CG        68.1020   56.1310   10.5380 C.2   132  ASN132      0.2629
    149  OD1       67.6200   56.2710   11.6450 O.2   132  ASN132     -0.2716
    150  ND2       67.6830   55.2150    9.7010 N.am  132  ASN132     -0.0877
    151  N         73.8380   61.3420   11.9450 N.3   134  LEU134     -0.1245
    152  CA        74.1570   62.0370   13.1980 C.3   134  LEU134      0.1561
    153  C         75.2770   63.0310   13.0360 C.2   134  LEU134      0.2260
    154  O         76.2190   62.8200   12.2690 O.2   134  LEU134     -0.2867
    155  CB        74.5260   61.0510   14.2950 C.3   134  LEU134      0.0270
    156  CG        73.4860   59.9880   14.5740 C.3   134  LEU134      0.0019
    157  CD1       73.9820   59.1160   15.6810 C.3   134  LEU134      0.0001
    158  CD2       72.1300   60.6250   14.9280 C.3   134  LEU134      0.0001
    159  N         74.2950   56.1840   10.8380 N.3   144  ALA144     -0.1231
    160  CA        73.8650   55.4140   11.9930 C.3   144  ALA144      0.1694
    161  C         72.6760   54.5570   11.5970 C.2   144  ALA144      0.2592
    162  O         72.2080   54.5950   10.4450 O.2   144  ALA144     -0.2718
    163  CB        73.4910   56.3410   13.1610 C.3   144  ALA144      0.0304
    164  N         72.1870   53.8020   12.5740 N.am  145  ASP145     -0.1974
    165  CA        71.1550   52.7880   12.4050 C.3   145  ASP145      0.1709
    166  C         71.3240   51.7780   11.2590 C.2   145  ASP145      0.2293
    167  O         70.8140   51.9650   10.1440 O.2   145  ASP145     -0.2864
    168  CB        69.7580   53.3940   12.4230 C.3   145  ASP145      0.1436
    169  CG        68.7200   52.4160   12.9630 C.2   145  ASP145      0.3671
    170  OD1       68.8420   51.1840   12.7050 O.co2 145  ASP145     -0.2456
    171  OD2       67.7820   52.8820   13.6490 O.co2 145  ASP145     -0.2456
@<TRIPOS>BOND
     1   150   148   am
     2   134   135    1
     3   147   148    1
     4   147   144    1
     5   167   166    2
     6   162   161    2
     7   148   149    2
     8   146   145    2
     9   145   144    1
    10   143   144    1
    11   143   136   am
    12   159   160    1
    13   166   165    1
    14   135   138    1
    15   135   136    1
    16   141   140    2
    17   161   160    1
    18   161   164   am
    19   138   139    1
    20   136   137    2
    21   139   140    1
    22   151   152    1
    23   160   163    1
    24   140   142   am
    25   154   153    2
    26   165   168    1
    27   165   164    1
    28   168   169    1
    29    43    44    1
    30    52    53    1
    31   170   169   ar
    32   169   171   ar
    33    44    45    1
    34    44    47    1
    35   153   152    1
    36   125   126    1
    37   152   155    1
    38   119   120    2
    39   119   118    1
    40    46    45    2
    41   127   128    2
    42   127   126    1
    43    47    48    1
    44   126   129    1
    45   123   122   ar
    46    53    56    1
    47    53    54    1
    48   121   118    1
    49   121   122    1
    50    55    54    2
    51   118   117    1
    52    57    56    1
    53   155   156    1
    54    51    49   ar
    55    48    49    1
    56   122   124   ar
    57   156   158    1
    58   156   157    1
    59    56    58    1
    60    49    50   ar
    61   111   110    2
    62   129   130    1
    63   117   110   am
    64   115   114    2
    65    97    95    1
    66   110   109    1
    67   113   114    1
    68   113   112    1
    69    78    76   ar
    70   114   116   am
    71    42    41    1
    72   130   131    1
    73    20    19    1
    74    20    21    2
    75    96    95    1
    76    68    69   ar
    77    68    66   ar
    78    19    18    1
    79    95    94    1
    80   112   109    1
    81   109   108    1
    82    76    77   ar
    83    76    75    1
    84    94    91    1
    85    69    67   ar
    86   131   132    1
    87    66    64   ar
    88   108   100   am
    89    41    40    1
    90    75    74    1
    91    40    39    1
    92   104   106   ar
    93   104   103   ar
    94    67    65   ar
    95   132   133    1
    96    64    65   ar
    97    64    63    1
    98    91    92    1
    99    91    90    1
   100    98    92   am
   101    98    99    1
   102   106   107   ar
   103   100    99    1
   104   100   101    2
   105   102   103    1
   106   102    99    1
   107    92    93    2
   108   103   105   ar
   109    74    71    1
   110    63    60    1
   111    90    81   am
   112    73    72    2
   113    39    38    1
   114    28    26    1
   115   107   105   ar
   116    70    71    1
   117    70    61   am
   118    82    81    2
   119    81    80    1
   120    71    72    1
   121    72    79   am
   122    60    61    1
   123    60    59    1
   124    38    35    1
   125    13    12    2
   126    61    62    2
   127    26    27    1
   128    26    23    1
   129    79    80    1
   130    80    83    1
   131    33    30    1
   132    12    11    1
   133    22    23    1
   134    35    36    1
   135    35    34    1
   136    23    24    1
   137    17    15    1
   138    86    88   ar
   139    86    84   ar
   140    83    84    1
   141    37    36    2
   142    88    89   ar
   143    84    85   ar
   144    15    14    1
   145    14    11    1
   146    14    16    1
   147    89    87   ar
   148    85    87   ar
   149    32    31    2
   150    11    10    1
   151    30    31    1
   152    30    29    1
   153    24    25    2
   154     9     7   ar
   155     7     8   ar
   156     7     6    1
   157     4     3    2
   158     6     5    1
   159     3     2    1
   160     5     2    1
   161     2     1    1
