@<TRIPOS>MOLECULE
tmp/2uznA00.pdb
 158 150 0 0 0
SMALL
GASTEIGER

@<TRIPOS>ATOM
      1  N         -0.4460   59.0630    3.4010 N.3    10  ILE10      -0.1245
      2  CA         0.7060   59.4740    4.2160 C.3    10  ILE10       0.1561
      3  C          0.5690   59.1510    5.7020 C.2    10  ILE10       0.2260
      4  O          1.4330   59.5170    6.5180 O.2    10  ILE10      -0.2867
      5  CB         1.0900   60.9700    3.9630 C.3    10  ILE10       0.0252
      6  CG1        0.0360   61.9240    4.4900 C.3    10  ILE10       0.0019
      7  CG2        1.3100   61.2030    2.4810 C.3    10  ILE10       0.0019
      8  CD1        0.3550   63.4010    4.2330 C.3    10  ILE10       0.0001
      9  N         -2.5370   57.3960    8.9630 N.3    12  GLU12      -0.1245
     10  CA        -3.8040   56.8480    9.4880 C.3    12  GLU12       0.1567
     11  C         -3.9980   57.2890   10.9520 C.2    12  GLU12       0.2260
     12  O         -3.0190   57.5790   11.6640 O.2    12  GLU12      -0.2867
     13  CB        -3.8920   55.3090    9.3530 C.3    12  GLU12       0.0388
     14  CG        -4.8090   54.8240    8.2040 C.3    12  GLU12       0.1160
     15  CD        -4.4670   53.4300    7.6480 C.2    12  GLU12       0.3649
     16  OE1       -5.0050   53.0980    6.5710 O.co2  12  GLU12      -0.2457
     17  OE2       -3.6720   52.6690    8.2610 O.co2  12  GLU12      -0.2457
     18  N         -5.2820   60.2190    6.3100 N.3    18  VAL18      -0.1245
     19  CA        -4.5320   61.3900    5.8090 C.3    18  VAL18       0.1561
     20  C         -3.8570   61.0590    4.5140 C.2    18  VAL18       0.2260
     21  O         -3.2040   60.0180    4.3960 O.2    18  VAL18      -0.2867
     22  CB        -3.3200   61.7080    6.6660 C.3    18  VAL18       0.0252
     23  CG1       -2.8430   63.1030    6.3910 C.3    18  VAL18       0.0019
     24  CG2       -3.5870   61.5040    8.1520 C.3    18  VAL18       0.0019
     25  N         -2.1360   68.4440    3.1220 N.3    31  ALA31      -0.1245
     26  CA        -2.4560   67.1540    3.6750 C.3    31  ALA31       0.1562
     27  C         -3.9560   67.1450    3.8720 C.2    31  ALA31       0.2260
     28  O         -4.4960   68.0540    4.4850 O.2    31  ALA31      -0.2867
     29  CB        -1.7070   66.9040    4.9800 C.3    31  ALA31       0.0290
     30  N         -7.0910   65.2530    5.5070 N.3    33  LYS33      -0.1245
     31  CA        -7.7050   64.3230    6.4560 C.3    33  LYS33       0.1561
     32  C         -9.1740   64.0950    6.1300 C.2    33  LYS33       0.2260
     33  O         -9.9640   65.0150    6.1540 O.2    33  LYS33      -0.2867
     34  CB        -7.5400   64.7690    7.9220 C.3    33  LYS33       0.0271
     35  CG        -6.3580   64.0870    8.6710 C.3    33  LYS33       0.0035
     36  CD        -6.6670   63.6710   10.1540 C.3    33  LYS33       0.0206
     37  CE        -5.6280   62.5880   10.6840 C.3    33  LYS33       0.1093
     38  NZ        -5.8440   61.9730   12.0940 N.3    33  LYS33      -0.1314
     39  N          0.5320   73.4070   12.7970 N.3    55  VAL55      -0.1245
     40  CA         0.3040   73.0250   11.4280 C.3    55  VAL55       0.1561
     41  C         -0.9740   73.7680   11.0150 C.2    55  VAL55       0.2260
     42  O         -2.0110   73.6170   11.6910 O.2    55  VAL55      -0.2867
     43  CB         0.1660   71.4780   11.2640 C.3    55  VAL55       0.0252
     44  CG1       -0.3010   71.0980    9.8310 C.3    55  VAL55       0.0019
     45  CG2        1.4850   70.8190   11.5640 C.3    55  VAL55       0.0019
     46  N         -4.8540   70.5850    5.4950 N.3    71  PHE71      -0.1227
     47  CA        -3.8070   71.2680    6.2420 C.3    71  PHE71       0.1736
     48  C         -2.5960   71.6060    5.3780 C.2    71  PHE71       0.2595
     49  O         -2.4100   71.0080    4.3300 O.2    71  PHE71      -0.2718
     50  CB        -3.3000   70.3720    7.3330 C.3    71  PHE71       0.0547
     51  CG        -4.2500   70.1570    8.4170 C.ar   71  PHE71      -0.0202
     52  CD1       -4.4000   71.1050    9.4040 C.ar   71  PHE71      -0.0042
     53  CD2       -5.0060   68.9860    8.4620 C.ar   71  PHE71      -0.0042
     54  CE1       -5.2750   70.9190   10.4030 C.ar   71  PHE71      -0.0003
     55  CE2       -5.8900   68.8040    9.4570 C.ar   71  PHE71      -0.0003
     56  CZ        -6.0290   69.7680   10.4500 C.ar   71  PHE71      -0.0000
     57  N         -1.7560   72.5380    5.8310 N.am   72  GLU72      -0.1965
     58  CA        -0.4390   72.7350    5.2310 C.3    72  GLU72       0.1733
     59  C          0.3340   71.4560    5.4160 C.2    72  GLU72       0.2616
     60  O          0.1450   70.7480    6.3980 O.2    72  GLU72      -0.2715
     61  CB         0.3320   73.8960    5.8730 C.3    72  GLU72       0.0429
     62  CG         0.9850   73.6620    7.2550 C.3    72  GLU72       0.1163
     63  CD         2.1430   74.6360    7.5740 C.2    72  GLU72       0.3649
     64  OE1        2.0390   75.4550    8.5210 O.co2  72  GLU72      -0.2457
     65  OE2        3.1730   74.5710    6.8870 O.co2  72  GLU72      -0.2457
     66  N          1.1910   71.1490    4.4620 N.am   73  PHE73      -0.1960
     67  CA         1.8840   69.8840    4.4230 C.3    73  PHE73       0.1771
     68  C          3.3620   70.0720    4.8340 C.2    73  PHE73       0.2619
     69  O          4.0850   70.9490    4.3220 O.2    73  PHE73      -0.2715
     70  CB         1.7440   69.3400    3.0110 C.3    73  PHE73       0.0574
     71  CG         2.6340   68.2180    2.7120 C.ar   73  PHE73      -0.0200
     72  CD1        3.8780   68.4490    2.1600 C.ar   73  PHE73      -0.0042
     73  CD2        2.2240   66.9140    2.9720 C.ar   73  PHE73      -0.0042
     74  CE1        4.7210   67.3940    1.9000 C.ar   73  PHE73      -0.0003
     75  CE2        3.0650   65.8520    2.7440 C.ar   73  PHE73      -0.0003
     76  CZ         4.3010   66.0700    2.1960 C.ar   73  PHE73      -0.0000
     77  N          3.7820   69.2830    5.8190 N.am   74  LEU74      -0.1963
     78  CA         5.1790   69.1430    6.1770 C.3    74  LEU74       0.1728
     79  C          5.5620   67.6960    5.9320 C.2    74  LEU74       0.2616
     80  O          4.7180   66.7910    6.1150 O.2    74  LEU74      -0.2715
     81  CB         5.4210   69.4870    7.6340 C.3    74  LEU74       0.0311
     82  CG         5.4730   70.9520    7.9840 C.3    74  LEU74       0.0022
     83  CD1        4.1020   71.3570    8.5370 C.3    74  LEU74       0.0001
     84  CD2        6.5410   71.1760    9.0110 C.3    74  LEU74       0.0001
     85  N          6.8400   67.4770    5.5840 N.am   75  HIS75      -0.1959
     86  CA         7.2770   66.2290    4.9510 C.3    75  HIS75       0.1787
     87  C          7.5780   65.1400    5.9400 C.2    75  HIS75       0.2620
     88  O          7.4260   63.9720    5.6180 O.2    75  HIS75      -0.2715
     89  CB         8.4830   66.4490    4.0130 C.3    75  HIS75       0.0785
     90  CG         8.3340   67.6220    3.0790 C.ar   75  HIS75       0.0821
     91  ND1        8.4130   67.4960    1.6990 N.ar   75  HIS75      -0.2267
     92  CD2        8.1280   68.9440    3.3270 C.ar   75  HIS75       0.1154
     93  CE1        8.2400   68.6820    1.1440 C.ar   75  HIS75       0.1986
     94  NE2        8.0630   69.5770    2.1080 N.ar   75  HIS75      -0.2212
     95  N          7.9690   65.5070    7.1540 N.am   76  GLN76      -0.1963
     96  CA         8.3730   64.5260    8.1560 C.3    76  GLN76       0.1733
     97  C          7.6690   64.7650    9.4770 C.2    76  GLN76       0.2616
     98  O          7.2750   65.8840    9.7580 O.2    76  GLN76      -0.2715
     99  CB         9.8800   64.6530    8.3670 C.3    76  GLN76       0.0408
    100  CG        10.4880   63.6230    9.2760 C.3    76  GLN76       0.0908
    101  CD        11.7290   63.0280    8.6790 C.2    76  GLN76       0.2608
    102  OE1       12.1030   63.3400    7.5340 O.2    76  GLN76      -0.2717
    103  NE2       12.3750   62.1480    9.4260 N.am   76  GLN76      -0.0878
    104  N          7.5420   63.7260   10.3050 N.am   77  ASP77      -0.1971
    105  CA         7.1340   63.9000   11.7140 C.3    77  ASP77       0.1709
    106  C          8.2860   63.5780   12.6420 C.2    77  ASP77       0.2293
    107  O          9.3160   63.0590   12.2050 O.2    77  ASP77      -0.2864
    108  CB         5.8950   63.0440   12.0490 C.3    77  ASP77       0.1436
    109  CG         6.1640   61.5230   11.9810 C.2    77  ASP77       0.3671
    110  OD1        7.3080   61.0980   12.2500 O.co2  77  ASP77      -0.2456
    111  OD2        5.2120   60.7530   11.7030 O.co2  77  ASP77      -0.2456
    112  N          9.3580   59.4220   13.1150 N.3    80  LYS80      -0.1245
    113  CA        10.1880   59.0810   11.9750 C.3    80  LYS80       0.1561
    114  C         11.6180   59.6300   12.0530 C.2    80  LYS80       0.2260
    115  O         12.5580   58.8670   11.8450 O.2    80  LYS80      -0.2867
    116  CB         9.4990   59.5570   10.6990 C.3    80  LYS80       0.0271
    117  CG        10.2040   59.1770    9.4040 C.3    80  LYS80       0.0035
    118  CD        10.0290   60.2640    8.3350 C.3    80  LYS80       0.0206
    119  CE        10.8900   60.0100    7.0800 C.3    80  LYS80       0.1093
    120  NZ        10.5620   60.9980    5.9550 N.3    80  LYS80      -0.1314
    121  N          4.3000   61.4260   16.7150 N.3   122  GLN122     -0.1231
    122  CA         3.6920   61.3650   15.4040 C.3   122  GLN122      0.1698
    123  C          2.8100   62.5960   15.0470 C.2   122  GLN122      0.2592
    124  O          2.4210   62.7390   13.8800 O.2   122  GLN122     -0.2718
    125  CB         3.1040   59.9770   14.9700 C.3   122  GLN122      0.0381
    126  CG         2.2920   59.0320   15.9050 C.3   122  GLN122      0.0905
    127  CD         2.9530   58.6380   17.2630 C.2   122  GLN122      0.2608
    128  OE1        4.1650   58.8110   17.5110 O.2   122  GLN122     -0.2717
    129  NE2        2.1210   58.1190   18.1560 N.am  122  GLN122     -0.0878
    130  N          2.5470   63.4890   16.0060 N.am  123  ASN123     -0.1974
    131  CA         1.7400   64.7080   15.7500 C.3   123  ASN123      0.1688
    132  C          2.5940   65.9570   15.6120 C.2   123  ASN123      0.2292
    133  O          2.0820   67.0730   15.5530 O.2   123  ASN123     -0.2864
    134  CB         0.8150   64.9880   16.9140 C.3   123  ASN123      0.1181
    135  CG        -0.3150   64.0760   16.9700 C.2   123  ASN123      0.2629
    136  OD1       -0.7150   63.4670   15.9510 O.2   123  ASN123     -0.2716
    137  ND2       -0.8880   63.9570   18.1550 N.am  123  ASN123     -0.0877
    138  N          5.3120   67.8940   13.4370 N.3   125  LEU125     -0.1245
    139  CA         5.7790   67.8640   12.0480 C.3   125  LEU125      0.1561
    140  C          6.9250   68.8240   11.8690 C.2   125  LEU125      0.2260
    141  O          6.9120   69.9200   12.4130 O.2   125  LEU125     -0.2867
    142  CB         4.6220   68.1480   11.0700 C.3   125  LEU125      0.0270
    143  CG         3.3540   67.2830   11.2670 C.3   125  LEU125      0.0019
    144  CD1        2.2830   67.6260   10.2720 C.3   125  LEU125      0.0001
    145  CD2        3.6740   65.7920   11.1910 C.3   125  LEU125      0.0001
    146  N          0.5200   69.1670   15.1190 N.3   135  ALA135     -0.1231
    147  CA        -0.6000   68.8100   14.2150 C.3   135  ALA135      0.1694
    148  C         -1.6710   68.1810   15.0510 C.2   135  ALA135      0.2592
    149  O         -1.3470   67.6690   16.1260 O.2   135  ALA135     -0.2718
    150  CB        -0.1420   67.8410   13.1990 C.3   135  ALA135      0.0304
    151  N         -2.9280   68.2000   14.5810 N.am  136  ASP136     -0.1974
    152  CA        -4.0860   67.6680   15.3410 C.3   136  ASP136      0.1709
    153  C         -4.5650   68.4170   16.5890 C.2   136  ASP136      0.2293
    154  O         -5.3390   67.8900   17.4130 O.2   136  ASP136     -0.2864
    155  CB        -3.8660   66.2100   15.6550 C.3   136  ASP136      0.1436
    156  CG        -3.7960   65.4130   14.4080 C.2   136  ASP136      0.3671
    157  OD1       -3.8170   66.1150   13.3570 O.co2 136  ASP136     -0.2456
    158  OD2       -3.7520   64.1360   14.4500 O.co2 136  ASP136     -0.2456
@<TRIPOS>BOND
     1    93    91   ar
     2    93    94   ar
     3    91    90   ar
     4    74    72   ar
     5    74    76   ar
     6    94    92   ar
     7    72    71   ar
     8    76    75   ar
     9     7     5    1
    10    71    73   ar
    11    71    70    1
    12    75    73   ar
    13    70    67    1
    14    90    92   ar
    15    90    89    1
    16    25    26    1
    17     1     2    1
    18    26    27    1
    19    26    29    1
    20    27    28    2
    21     5     2    1
    22     5     6    1
    23    89    86    1
    24     2     3    1
    25     8     6    1
    26    69    68    2
    27    49    48    2
    28    21    20    2
    29    67    66    1
    30    67    68    1
    31    66    59   am
    32    20    19    1
    33    68    77   am
    34    86    85    1
    35    86    87    1
    36    58    59    1
    37    58    57    1
    38    58    61    1
    39    48    57   am
    40    48    47    1
    41    59    60    2
    42    46    47    1
    43    30    31    1
    44    85    79   am
    45    88    87    2
    46     3     4    2
    47    19    18    1
    48    19    22    1
    49    77    78    1
    50    61    62    1
    51    79    80    2
    52    79    78    1
    53    87    95   am
    54   120   119    1
    55    32    33    2
    56    32    31    1
    57    78    81    1
    58    47    50    1
    59    23    22    1
    60    31    34    1
    61    16    15   ar
    62    22    24    1
    63    65    63   ar
    64   119   118    1
    65    95    96    1
    66    62    63    1
    67    50    51    1
    68   102   101    2
    69    63    64   ar
    70    81    82    1
    71    15    14    1
    72    15    17   ar
    73    34    35    1
    74    82    83    1
    75    82    84    1
    76    96    99    1
    77    96    97    1
    78    14    13    1
    79   118   117    1
    80    99   100    1
    81    51    53   ar
    82    51    52   ar
    83    53    55   ar
    84    35    36    1
    85   101   100    1
    86   101   103   am
    87     9    10    1
    88    13    10    1
    89    52    54   ar
    90   117   116    1
    91    55    56   ar
    92    97    98    2
    93    97   104   am
    94    10    11    1
    95    44    43    1
    96    36    37    1
    97   144   143    1
    98   104   105    1
    99    54    56   ar
   100    37    38    1
   101   116   113    1
   102    11    12    2
   103    41    40    1
   104    41    42    2
   105   142   143    1
   106   142   139    1
   107   145   143    1
   108    43    40    1
   109    43    45    1
   110    40    39    1
   111   111   109   ar
   112   105   108    1
   113   105   106    1
   114   115   114    2
   115   140   139    1
   116   140   141    2
   117   113   114    1
   118   113   112    1
   119   109   108    1
   120   109   110   ar
   121   139   138    1
   122   107   106    2
   123   150   147    1
   124   157   156   ar
   125   124   123    2
   126   147   148    1
   127   147   146    1
   128   156   158   ar
   129   156   155    1
   130   151   148   am
   131   151   152    1
   132   125   122    1
   133   125   126    1
   134   123   122    1
   135   123   130   am
   136   148   149    2
   137   152   155    1
   138   152   153    1
   139   122   121    1
   140   133   132    2
   141   132   131    1
   142   131   130    1
   143   131   134    1
   144   126   127    1
   145   136   135    2
   146   153   154    2
   147   134   135    1
   148   135   137   am
   149   127   128    2
   150   127   129   am
