@<TRIPOS>MOLECULE
tmp/2uzoA00.pdb
 153 145 0 0 0
SMALL
GASTEIGER

@<TRIPOS>ATOM
      1  N         13.9310  -13.8690    6.4190 N.3    10  ILE10      -0.1245
      2  CA        12.8840  -12.8970    6.7940 C.3    10  ILE10       0.1561
      3  C         13.0550  -11.5760    6.0500 C.2    10  ILE10       0.2260
      4  O         12.2450  -10.6440    6.2120 O.2    10  ILE10      -0.2867
      5  CB        12.8690  -12.5210    8.3110 C.3    10  ILE10       0.0252
      6  CG1       13.4690  -13.5830    9.2110 C.3    10  ILE10       0.0019
      7  CG2       11.4480  -12.2340    8.7740 C.3    10  ILE10       0.0019
      8  CD1       13.5120  -13.1570   10.6650 C.3    10  ILE10       0.0001
      9  N         17.9290   -6.5940    5.4190 N.3    13  GLY13      -0.1225
     10  CA        17.9360   -5.2290    5.9380 C.3    13  GLY13       0.1811
     11  C         19.1850   -4.4350    5.5950 C.2    13  GLY13       0.2280
     12  O         20.0260   -4.8630    4.7780 O.2    13  GLY13      -0.2866
     13  N         18.6690  -11.2230    7.2210 N.3    18  VAL18      -0.1245
     14  CA        17.9890  -11.7350    8.4220 C.3    18  VAL18       0.1561
     15  C         17.2600  -13.0140    8.1140 C.2    18  VAL18       0.2260
     16  O         16.4320  -13.0550    7.2210 O.2    18  VAL18      -0.2867
     17  CB        16.9660  -10.7250    9.0600 C.3    18  VAL18       0.0252
     18  CG1       16.6040  -11.1690   10.4910 C.3    18  VAL18       0.0019
     19  CG2       17.4990   -9.2920    9.0660 C.3    18  VAL18       0.0019
     20  N         15.5170  -14.3820   15.4960 N.3    31  ALA31      -0.1245
     21  CA        15.9210  -13.7610   14.2620 C.3    31  ALA31       0.1562
     22  C         17.4250  -13.6350   14.2970 C.2    31  ALA31       0.2260
     23  O         18.0050  -12.9950   15.1910 O.2    31  ALA31      -0.2867
     24  CB        15.2610  -12.3650   14.0700 C.3    31  ALA31       0.0290
     25  N         20.5870  -12.2020   12.3680 N.3    33  LYS33      -0.1197
     26  CA        21.1750  -11.2010   11.4530 C.3    33  LYS33       0.1778
     27  C         22.7180  -11.4410   11.2940 C.2    33  LYS33       0.2305
     28  O         23.5020  -11.1640   12.2130 O.2    33  LYS33      -0.2863
     29  CB        20.9570   -9.7840   12.0510 C.2    33  LYS33      -0.0042
     30  CG        20.6840   -8.6010   11.0580 C.2    33  LYS33      -0.0273
     31  CD        20.8070   -7.1500   11.6730 C.3    33  LYS33       0.0462
     32  CE        19.5050   -6.5190   12.2570 C.3    33  LYS33       0.1140
     33  NZ        18.5870   -5.5630   11.4380 N.3    33  LYS33      -0.1310
     34  N         12.8070   -4.6770   20.5300 N.3    58  VAL58      -0.1245
     35  CA        13.0390   -6.0780   20.2080 C.3    58  VAL58       0.1561
     36  C         14.3450   -6.4800   20.8720 C.2    58  VAL58       0.2260
     37  O         15.3950   -5.8680   20.6190 O.2    58  VAL58      -0.2867
     38  CB        13.2140   -6.2810   18.6800 C.3    58  VAL58       0.0252
     39  CG1       13.7720   -7.6820   18.3920 C.3    58  VAL58       0.0019
     40  CG2       11.8950   -6.0460   17.9570 C.3    58  VAL58       0.0019
     41  N         18.2400  -11.9140   17.6870 N.3    74  PHE74      -0.1227
     42  CA        17.1540  -11.0440   18.1690 C.3    74  PHE74       0.1736
     43  C         15.9230  -11.8950   18.4890 C.2    74  PHE74       0.2598
     44  O         15.7520  -13.0050   17.9260 O.2    74  PHE74      -0.2717
     45  CB        16.7930   -9.9610   17.1350 C.3    74  PHE74       0.0547
     46  CG        17.8280   -8.8530   17.0030 C.ar   74  PHE74      -0.0202
     47  CD1       17.9080   -7.8250   17.9370 C.ar   74  PHE74      -0.0042
     48  CD2       18.7050   -8.8270   15.9470 C.ar   74  PHE74      -0.0042
     49  CE1       18.8610   -6.8000   17.7890 C.ar   74  PHE74      -0.0003
     50  CE2       19.6460   -7.8100   15.8120 C.ar   74  PHE74      -0.0003
     51  CZ        19.7150   -6.8000   16.7430 C.ar   74  PHE74      -0.0000
     52  N         15.1130  -11.3950   19.4300 N.am   75  GLU75      -0.1920
     53  CA        13.7920  -11.9480   19.7660 C.3    75  GLU75       0.1949
     54  C         13.0230  -11.9990   18.4300 C.2    75  GLU75       0.2659
     55  O         13.1030  -11.0940   17.6300 O.2    75  GLU75      -0.2711
     56  CB        13.1430  -11.0030   20.7710 C.2    75  GLU75       0.0111
     57  CG        11.6260  -11.0940   20.9190 C.2    75  GLU75       0.0838
     58  CD        10.9740   -9.9390   21.7040 C.2    75  GLU75       0.3877
     59  OE1       11.5950   -8.9310   22.1110 O.co2  75  GLU75      -0.2406
     60  OE2        9.7650  -10.0570   21.9200 O.co2  75  GLU75      -0.2406
     61  N         12.3330  -13.0820   18.1550 N.am   76  PHE76      -0.1957
     62  CA        11.6150  -13.2030   16.9000 C.3    76  PHE76       0.1771
     63  C         10.1160  -12.8320   17.0780 C.2    76  PHE76       0.2619
     64  O          9.4600  -13.3910   17.9510 O.2    76  PHE76      -0.2715
     65  CB        11.7430  -14.6420   16.3820 C.3    76  PHE76       0.0574
     66  CG        10.9050  -14.9130   15.1960 C.ar   76  PHE76      -0.0200
     67  CD1        9.6180  -15.4300   15.3470 C.ar   76  PHE76      -0.0042
     68  CD2       11.3760  -14.5790   13.9100 C.ar   76  PHE76      -0.0042
     69  CE1        8.8110  -15.6310   14.2120 C.ar   76  PHE76      -0.0003
     70  CE2       10.6020  -14.7770   12.7920 C.ar   76  PHE76      -0.0003
     71  CZ         9.3010  -15.2900   12.9230 C.ar   76  PHE76      -0.0000
     72  N          9.5880  -11.9150   16.2490 N.am   77  LEU77      -0.1963
     73  CA         8.1280  -11.6180   16.2160 C.3    77  LEU77       0.1728
     74  C          7.6020  -11.9120   14.8250 C.2    77  LEU77       0.2616
     75  O          8.3100  -11.7170   13.8740 O.2    77  LEU77      -0.2715
     76  CB         7.8020  -10.1480   16.5690 C.3    77  LEU77       0.0311
     77  CG         7.7770   -9.7660   18.0790 C.3    77  LEU77       0.0022
     78  CD1        9.1970   -9.5380   18.6180 C.3    77  LEU77       0.0001
     79  CD2        6.9220   -8.5620   18.3740 C.3    77  LEU77       0.0001
     80  N          6.3280  -12.2920   14.7120 N.am   78  HIS78      -0.1959
     81  CA         5.8080  -12.8690   13.4950 C.3    78  HIS78       0.1787
     82  C          5.4530  -11.9540   12.3580 C.2    78  HIS78       0.2620
     83  O          5.4400  -12.4120   11.2410 O.2    78  HIS78      -0.2715
     84  CB         4.6330  -13.8140   13.8020 C.3    78  HIS78       0.0785
     85  CG         5.0780  -15.1250   14.3520 C.ar   78  HIS78       0.0821
     86  ND1        5.3720  -15.3020   15.6860 N.ar   78  HIS78      -0.2267
     87  CD2        5.3330  -16.3060   13.7450 C.ar   78  HIS78       0.1154
     88  CE1        5.7260  -16.5610   15.8870 C.ar   78  HIS78       0.1986
     89  NE2        5.7160  -17.1900   14.7260 N.ar   78  HIS78      -0.2212
     90  N          5.1690  -10.6790   12.6370 N.am   79  GLN79      -0.1963
     91  CA         4.8840   -9.6970   11.5670 C.3    79  GLN79       0.1733
     92  C          5.5280   -8.3480   11.8240 C.2    79  GLN79       0.2616
     93  O          5.8170   -8.0140   12.9750 O.2    79  GLN79      -0.2715
     94  CB         3.3820   -9.4410   11.4840 C.3    79  GLN79       0.0408
     95  CG         2.6590  -10.5370   10.8230 C.3    79  GLN79       0.0908
     96  CD         1.5760  -10.0840    9.8580 C.2    79  GLN79       0.2608
     97  OE1        1.2750   -8.8920    9.7050 O.2    79  GLN79      -0.2717
     98  NE2        0.9750  -11.0650    9.2010 N.am   79  GLN79      -0.0878
     99  N          5.6760   -7.5580   10.7560 N.am   80  ASP80      -0.1971
    100  CA         6.0740   -6.1460   10.8640 C.3    80  ASP80       0.1709
    101  C          4.8960   -5.2370   10.5100 C.2    80  ASP80       0.2293
    102  O          3.8420   -5.7360   10.1450 O.2    80  ASP80      -0.2864
    103  CB         7.3440   -5.8570   10.0470 C.3    80  ASP80       0.1436
    104  CG         7.1280   -5.9030    8.5200 C.2    80  ASP80       0.3671
    105  OD1        6.1130   -5.4130    8.0010 O.co2  80  ASP80      -0.2456
    106  OD2        8.0470   -6.3580    7.8210 O.co2  80  ASP80      -0.2456
    107  N          3.6600   -5.0630    6.3910 N.3    83  LYS83      -0.1245
    108  CA         2.7560   -6.1260    5.9410 C.3    83  LYS83       0.1561
    109  C          1.3600   -5.9720    6.5860 C.2    83  LYS83       0.2260
    110  O          0.3240   -6.1210    5.9010 O.2    83  LYS83      -0.2867
    111  CB         3.3640   -7.5090    6.2120 C.3    83  LYS83       0.0271
    112  CG         2.3940   -8.6790    5.9200 C.3    83  LYS83       0.0035
    113  CD         3.0540  -10.0690    6.0700 C.3    83  LYS83       0.0206
    114  CE         2.0270  -11.1760    5.8180 C.3    83  LYS83       0.1093
    115  NZ         2.6360  -12.5510    5.9820 N.3    83  LYS83      -0.1314
    116  N          8.9460   -1.2670    8.4660 N.3   125  GLN125     -0.1231
    117  CA         9.6350   -2.5650    8.3770 C.3   125  GLN125      0.1698
    118  C         10.3960   -2.9360    9.6370 C.2   125  GLN125      0.2592
    119  O         10.6770   -4.1020    9.8560 O.2   125  GLN125     -0.2718
    120  CB        10.6480   -2.5890    7.2200 C.3   125  GLN125      0.0381
    121  CG        10.0430   -2.7200    5.8390 C.3   125  GLN125      0.0905
    122  CD         9.6590   -1.3760    5.2060 C.2   125  GLN125      0.2608
    123  OE1        9.4090   -0.3680    5.8920 O.2   125  GLN125     -0.2717
    124  NE2        9.6210   -1.3630    3.8770 N.am  125  GLN125     -0.0878
    125  N         10.7500   -1.9260   10.4290 N.am  126  ASN126     -0.1974
    126  CA        11.4600   -2.0470   11.7040 C.3   126  ASN126      0.1688
    127  C         10.5510   -2.1720   12.9150 C.2   126  ASN126      0.2292
    128  O         11.0360   -2.1600   14.0340 O.2   126  ASN126     -0.2864
    129  CB        12.3120   -0.7860   11.9290 C.3   126  ASN126      0.1181
    130  CG        13.5990   -0.7690   11.1200 C.2   126  ASN126      0.2629
    131  OD1       14.2800    0.2470   11.0920 O.2   126  ASN126     -0.2716
    132  ND2       13.9280   -1.8800   10.4380 N.am  126  ASN126     -0.0877
    133  N          7.5520   -4.1890   14.8470 N.3   128  LEU128     -0.1245
    134  CA         7.2220   -5.6020   14.8280 C.3   128  LEU128      0.1561
    135  C          6.0790   -5.8050   15.7820 C.2   128  LEU128      0.2260
    136  O          6.0510   -5.2420   16.8800 O.2   128  LEU128     -0.2867
    137  CB         8.4550   -6.4570   15.1730 C.3   128  LEU128      0.0270
    138  CG         9.7110   -6.4220   14.2800 C.3   128  LEU128      0.0019
    139  CD1       10.7740   -7.4510   14.7620 C.3   128  LEU128      0.0001
    140  CD2        9.4820   -6.6340   12.7020 C.3   128  LEU128      0.0001
    141  N         12.6540   -2.4030   16.2810 N.3   138  ALA138     -0.1231
    142  CA        13.8780   -3.1910   15.9440 C.3   138  ALA138      0.1694
    143  C         14.9440   -2.3010   15.3570 C.2   138  ALA138      0.2592
    144  O         14.6360   -1.2950   14.7410 O.2   138  ALA138     -0.2718
    145  CB        13.5760   -4.3330   14.9770 C.3   138  ALA138      0.0304
    146  N         16.2010   -2.6700   15.6310 N.am  139  ASP139     -0.1974
    147  CA        17.4400   -2.0530   15.0920 C.3   139  ASP139      0.1709
    148  C         17.8970   -0.7460   15.7510 C.2   139  ASP139      0.2293
    149  O         18.7910   -0.0470   15.2700 O.2   139  ASP139     -0.2864
    150  CB        17.4910   -2.1610   13.5550 C.3   139  ASP139      0.1436
    151  CG        17.5310   -3.6270   13.1120 C.2   139  ASP139      0.3671
    152  OD1       17.5490   -4.4590   14.0620 O.co2 139  ASP139     -0.2456
    153  OD2       17.5410   -4.0030   11.8920 O.co2 139  ASP139     -0.2456
@<TRIPOS>BOND
     1   124   122   am
     2    12    11    2
     3   122   121    1
     4   122   123    2
     5     9    10    1
     6    11    10    1
     7   114   115    1
     8   114   113    1
     9   121   120    1
    10   110   109    2
    11   112   113    1
    12   112   111    1
    13   108   111    1
    14   108   107    1
    15   108   109    1
    16     3     4    2
    17     3     2    1
    18     1     2    1
    19     2     5    1
    20   120   117    1
    21    13    14    1
    22    16    15    2
    23   106   104   ar
    24   105   104   ar
    25    15    14    1
    26     5     7    1
    27     5     6    1
    28   117   116    1
    29   117   118    1
    30    14    17    1
    31   104   103    1
    32    17    19    1
    33    17    18    1
    34    98    96   am
    35     6     8    1
    36   118   119    2
    37   118   125   am
    38    97    96    2
    39    96    95    1
    40   103   100    1
    41   102   101    2
    42   125   126    1
    43   132   130   am
    44   101   100    1
    45    99   100    1
    46    99    92   am
    47    95    94    1
    48    30    31    1
    49    30    29    2
    50   131   130    2
    51   130   129    1
    52    83    82    2
    53    27    26    1
    54    27    28    2
    55    33    32    1
    56    26    29    1
    57    26    25    1
    58    94    91    1
    59    91    92    1
    60    91    90    1
    61    31    32    1
    62   126   129    1
    63   126   127    1
    64    92    93    2
    65   153   151   ar
    66    82    90   am
    67    82    81    1
    68   140   138    1
    69    70    71   ar
    70    70    68   ar
    71   127   128    2
    72    71    69   ar
    73   151   150    1
    74   151   152   ar
    75    81    84    1
    76    81    80    1
    77   150   147    1
    78    87    85   ar
    79    87    89   ar
    80    84    85    1
    81    75    74    2
    82    68    66   ar
    83    24    21    1
    84    69    67   ar
    85    21    22    1
    86    21    20    1
    87   138   139    1
    88   138   137    1
    89    22    23    2
    90    85    86   ar
    91    80    74   am
    92    89    88   ar
    93   144   143    2
    94    74    73    1
    95   134   133    1
    96   134   137    1
    97   134   135    1
    98   145   142    1
    99   147   146    1
   100   147   148    1
   101    66    67   ar
   102    66    65    1
   103   149   148    2
   104   143   146   am
   105   143   142    1
   106    86    88   ar
   107   135   136    2
   108    50    48   ar
   109    50    51   ar
   110   142   141    1
   111    48    46   ar
   112    73    72    1
   113    73    76    1
   114    72    63   am
   115    65    62    1
   116    76    77    1
   117    51    49   ar
   118    62    63    1
   119    62    61    1
   120    46    45    1
   121    46    47   ar
   122    63    64    2
   123    45    42    1
   124    55    54    2
   125    41    42    1
   126    49    47   ar
   127    44    43    2
   128    40    38    1
   129    77    79    1
   130    77    78    1
   131    61    54   am
   132    42    43    1
   133    39    38    1
   134    54    53    1
   135    43    52   am
   136    38    35    1
   137    52    53    1
   138    53    56    1
   139    35    34    1
   140    35    36    1
   141    37    36    2
   142    56    57    2
   143    57    58    1
   144    58    60   ar
   145    58    59   ar
