@<TRIPOS>MOLECULE
tmp/2uzuA00.pdb
 208 199 0 0 0
SMALL
GASTEIGER

@<TRIPOS>ATOM
      1  N          9.2670   15.4340    8.2970 N.3    35  LEU35      -0.1231
      2  CA         9.1610   14.0220    8.6510 C.3    35  LEU35       0.1693
      3  C         10.2750   13.1940    8.0350 C.2    35  LEU35       0.2593
      4  O         10.4210   11.9970    8.3220 O.2    35  LEU35      -0.2718
      5  CB         7.8270   13.4700    8.1610 C.3    35  LEU35       0.0284
      6  CG         6.5840   14.2660    8.5500 C.3    35  LEU35       0.0019
      7  CD1        5.3550   13.6460    7.8830 C.3    35  LEU35       0.0001
      8  CD2        6.4490   14.2760   10.0680 C.3    35  LEU35       0.0001
      9  N         11.0520   13.8270    7.1670 N.am   36  GLY36      -0.1942
     10  CA        12.1320   13.1210    6.5230 C.3    36  GLY36       0.2014
     11  C         12.9100   14.0750    5.6560 C.2    36  GLY36       0.2640
     12  O         12.3410   14.8730    4.9150 O.2    36  GLY36      -0.2714
     13  N         14.2260   14.0070    5.7550 N.am   37  THR37      -0.1936
     14  CA        15.0530   14.8760    4.9640 C.3    37  THR37       0.2028
     15  C         16.0470   14.0300    4.1990 C.2    37  THR37       0.2643
     16  O         16.0270   12.8010    4.2800 O.2    37  THR37      -0.2714
     17  CB        15.7870   15.8850    5.8480 C.3    37  THR37       0.1808
     18  OG1       16.5410   16.7740    5.0140 O.3    37  THR37      -0.2208
     19  CG2       16.7200   15.1670    6.8230 C.3    37  THR37       0.0379
     20  N         16.9140   14.6830    3.4410 N.am   38  GLY38      -0.1939
     21  CA        17.8780   13.9350    2.6720 C.3    38  GLY38       0.2014
     22  C         18.5230   14.7590    1.5900 C.2    38  GLY38       0.2640
     23  O         18.1960   15.9310    1.3800 O.2    38  GLY38      -0.2714
     24  N         19.4550   14.1070    0.9110 N.am   39  SER39      -0.1935
     25  CA        20.2420   14.6600   -0.1750 C.3    39  SER39       0.2055
     26  C         19.7790   15.9540   -0.8510 C.2    39  SER39       0.2643
     27  O         20.4900   16.9610   -0.8170 O.2    39  SER39      -0.2714
     28  CB        20.4290   13.5600   -1.2190 C.3    39  SER39       0.2130
     29  OG        19.2980   12.6970   -1.2420 O.3    39  SER39      -0.2179
     30  N         18.5970   15.9530   -1.4600 N.am   40  PHE40      -0.1959
     31  CA        18.1530   17.1500   -2.1650 C.3    40  PHE40       0.1771
     32  C         16.7390   17.6280   -1.8700 C.2    40  PHE40       0.2620
     33  O         16.2160   18.5130   -2.5590 O.2    40  PHE40      -0.2715
     34  CB        18.3340   16.9330   -3.6700 C.3    40  PHE40       0.0574
     35  CG        17.8810   15.5750   -4.1460 C.ar   40  PHE40      -0.0200
     36  CD1       16.5760   15.3700   -4.5780 C.ar   40  PHE40      -0.0042
     37  CD2       18.7630   14.4940   -4.1470 C.ar   40  PHE40      -0.0042
     38  CE1       16.1540   14.1190   -5.0030 C.ar   40  PHE40      -0.0003
     39  CE2       18.3460   13.2280   -4.5730 C.ar   40  PHE40      -0.0003
     40  CZ        17.0370   13.0390   -5.0030 C.ar   40  PHE40      -0.0000
     41  N         16.1240   17.0560   -0.8380 N.am   41  GLY41      -0.1940
     42  CA        14.7820   17.4630   -0.4870 C.3    41  GLY41       0.2014
     43  C         14.3980   17.0140    0.9000 C.2    41  GLY41       0.2639
     44  O         15.2250   16.4870    1.6400 O.2    41  GLY41      -0.2714
     45  N         13.1340   17.2180    1.2530 N.am   42  ARG42      -0.1963
     46  CA        12.6270   16.8150    2.5490 C.3    42  ARG42       0.1729
     47  C         11.1100   16.6650    2.4330 C.2    42  ARG42       0.2616
     48  O         10.4770   17.2590    1.5590 O.2    42  ARG42      -0.2715
     49  CB        12.9970   17.8480    3.6280 C.3    42  ARG42       0.0348
     50  CG        12.0780   19.0600    3.7430 C.3    42  ARG42       0.0492
     51  CD        12.8620   20.3580    3.6800 C.3    42  ARG42       0.2205
     52  NE        12.5250   21.2840    4.7600 N.pl3  42  ARG42      -0.0865
     53  CZ        13.0570   21.2400    5.9820 C.cat  42  ARG42       0.5346
     54  NH1       13.9620   20.3170    6.2870 N.pl3  42  ARG42       0.1354
     55  NH2       12.6790   22.1180    6.9080 N.pl3  42  ARG42       0.1354
     56  N         10.5370   15.8490    3.3010 N.am   43  VAL43      -0.1977
     57  CA         9.1140   15.6340    3.2910 C.3    43  VAL43       0.1596
     58  C          8.5100   16.3220    4.5010 C.2    43  VAL43       0.2287
     59  O          9.0010   16.1600    5.6230 O.2    43  VAL43      -0.2864
     60  CB         8.7800   14.1330    3.3470 C.3    43  VAL43       0.0276
     61  CG1        7.2930   13.9400    3.6900 C.3    43  VAL43       0.0022
     62  CG2        9.1040   13.4860    2.0030 C.3    43  VAL43       0.0022
     63  N          1.4880   14.5550    2.7310 N.3    56  ALA56      -0.1245
     64  CA         2.9330   14.4920    2.8870 C.3    56  ALA56       0.1562
     65  C          3.4270   15.2690    1.6920 C.2    56  ALA56       0.2260
     66  O          3.1620   14.8840    0.5540 O.2    56  ALA56      -0.2867
     67  CB         3.4260   13.0650    2.8050 C.3    56  ALA56       0.0290
     68  N          6.5210   16.5240   -0.5350 N.3    58  LYS58      -0.1231
     69  CA         7.9120   16.2570   -0.8580 C.3    58  LYS58       0.1693
     70  C          8.4330   17.4780   -1.5900 C.2    58  LYS58       0.2592
     71  O          7.9390   17.8130   -2.6620 O.2    58  LYS58      -0.2718
     72  CB         7.9800   15.0260   -1.7490 C.3    58  LYS58       0.0285
     73  CG         9.3600   14.4780   -2.0100 C.3    58  LYS58       0.0035
     74  CD         9.2280   13.0680   -2.6190 C.3    58  LYS58       0.0206
     75  CE        10.5140   12.6260   -3.2820 C.3    58  LYS58       0.1093
     76  NZ        10.5690   11.1930   -3.6300 N.3    58  LYS58      -0.1314
     77  N          9.4330   18.1390   -1.0120 N.am   59  ILE59      -0.1966
     78  CA         9.9960   19.3500   -1.5970 C.3    59  ILE59       0.1727
     79  C         11.4140   19.1600   -2.1290 C.2    59  ILE59       0.2616
     80  O         12.3310   18.8640   -1.3740 O.2    59  ILE59      -0.2715
     81  CB         9.9770   20.4940   -0.5620 C.3    59  ILE59       0.0290
     82  CG1        8.5500   20.6340    0.0060 C.3    59  ILE59       0.0022
     83  CG2       10.4480   21.7860   -1.2010 C.3    59  ILE59       0.0023
     84  CD1        8.3390   21.7970    0.9550 C.3    59  ILE59       0.0001
     85  N         11.5790   19.3290   -3.4440 N.am   60  LEU60      -0.1977
     86  CA        12.8820   19.1690   -4.0950 C.3    60  LEU60       0.1596
     87  C         13.5720   20.4760   -4.4400 C.2    60  LEU60       0.2287
     88  O         13.0160   21.3020   -5.1600 O.2    60  LEU60      -0.2864
     89  CB        12.7500   18.3560   -5.3810 C.3    60  LEU60       0.0297
     90  CG        12.5650   16.8480   -5.2450 C.3    60  LEU60       0.0022
     91  CD1       13.5400   16.3620   -4.2000 C.3    60  LEU60       0.0001
     92  CD2       11.1550   16.5110   -4.8320 C.3    60  LEU60       0.0001
     93  N         10.0800   10.0430  -11.5110 N.3    77  GLU77      -0.1245
     94  CA         9.2170    9.9050  -10.3280 C.3    77  GLU77       0.1567
     95  C          7.8640   10.5870  -10.4440 C.2    77  GLU77       0.2260
     96  O          6.8340    9.9430  -10.2670 O.2    77  GLU77      -0.2867
     97  CB         9.9250   10.3980   -9.0550 C.3    77  GLU77       0.0388
     98  CG         8.9810   10.5060   -7.8580 C.3    77  GLU77       0.1160
     99  CD         9.6800   10.7230   -6.5210 C.2    77  GLU77       0.3649
    100  OE1       10.5900   11.5770   -6.4370 O.co2  77  GLU77      -0.2457
    101  OE2        9.2950   10.0410   -5.5440 O.co2  77  GLU77      -0.2457
    102  N          1.4640    4.8950   -2.4700 N.3    90  VAL90      -0.1245
    103  CA         0.9310    6.1560   -1.9560 C.3    90  VAL90       0.1561
    104  C          0.5230    7.0150   -3.1370 C.2    90  VAL90       0.2260
    105  O          1.1790    7.0110   -4.1700 O.2    90  VAL90      -0.2867
    106  CB         1.9420    6.9280   -1.0860 C.3    90  VAL90       0.0252
    107  CG1        1.9730    6.3510    0.3020 C.3    90  VAL90       0.0019
    108  CG2        3.3190    6.8720   -1.7150 C.3    90  VAL90       0.0019
    109  N          1.3660   14.3170   -1.5110 N.3   106  MET106     -0.1230
    110  CA         0.7470   13.0100   -1.5370 C.3   106  MET106      0.1702
    111  C          0.0250   12.6720   -0.2620 C.2   106  MET106      0.2592
    112  O          0.0690   13.4360    0.6830 O.2   106  MET106     -0.2718
    113  CB         1.8250   11.9960   -1.8380 C.3   106  MET106      0.0401
    114  CG         2.4180   12.3290   -3.1830 C.3   106  MET106      0.0596
    115  SD         3.8730   11.4880   -3.4050 S.3   106  MET106     -0.1393
    116  CE         4.8430   12.2960   -2.1560 C.3   106  MET106      0.0692
    117  N         -0.6590   11.5380   -0.2500 N.am  107  GLU107     -0.1966
    118  CA        -1.3810   11.1310    0.9390 C.3   107  GLU107      0.1733
    119  C         -0.4450   10.9100    2.1220 C.2   107  GLU107      0.2616
    120  O          0.6460   10.3390    1.9890 O.2   107  GLU107     -0.2715
    121  CB        -2.1910    9.8570    0.6800 C.3   107  GLU107      0.0429
    122  CG        -3.5710   10.0990    0.0970 C.3   107  GLU107      0.1163
    123  CD        -4.3890    8.8220   -0.0070 C.2   107  GLU107      0.3649
    124  OE1       -4.4220    8.0590    0.9820 O.co2 107  GLU107     -0.2457
    125  OE2       -5.0080    8.5830   -1.0710 O.co2 107  GLU107     -0.2457
    126  N         -0.8820   11.3870    3.2810 N.am  108  TYR108     -0.1960
    127  CA        -0.1210   11.2360    4.5000 C.3   108  TYR108      0.1771
    128  C         -0.4810    9.8880    5.1100 C.2   108  TYR108      0.2619
    129  O         -1.6620    9.5500    5.2290 O.2   108  TYR108     -0.2715
    130  CB        -0.4660   12.3630    5.4720 C.3   108  TYR108      0.0574
    131  CG         0.1850   12.2240    6.8300 C.ar  108  TYR108     -0.0198
    132  CD1        1.5630   12.0760    6.9510 C.ar  108  TYR108     -0.0009
    133  CD2       -0.5790   12.2480    7.9960 C.ar  108  TYR108     -0.0009
    134  CE1        2.1620   11.9590    8.1910 C.ar  108  TYR108      0.0417
    135  CE2        0.0140   12.1310    9.2460 C.ar  108  TYR108      0.0417
    136  CZ         1.3830   11.9890    9.3390 C.ar  108  TYR108      0.1957
    137  OH         1.9840   11.9030   10.5760 O.3   108  TYR108     -0.2866
    138  N          0.5380    9.1100    5.4680 N.am  109  VAL109     -0.1977
    139  CA         0.3360    7.8070    6.0920 C.3   109  VAL109      0.1596
    140  C          0.9550    7.9080    7.4820 C.2   109  VAL109      0.2287
    141  O          2.1530    7.6830    7.6610 O.2   109  VAL109     -0.2864
    142  CB         1.0510    6.6810    5.3250 C.3   109  VAL109      0.0276
    143  CG1        0.5660    5.3350    5.8290 C.3   109  VAL109      0.0022
    144  CG2        0.8100    6.8170    3.8260 C.3   109  VAL109      0.0022
    145  N          7.0830    4.3390    9.3080 N.3   113  GLU113     -0.1245
    146  CA         7.8290    3.4080    8.4780 C.3   113  GLU113      0.1567
    147  C          7.8850    1.9910    9.0260 C.2   113  GLU113      0.2260
    148  O          7.9350    1.7930   10.2370 O.2   113  GLU113     -0.2867
    149  CB         9.2490    3.9260    8.3140 C.3   113  GLU113      0.0388
    150  CG         9.3320    5.3150    7.7000 C.3   113  GLU113      0.1160
    151  CD        10.6610    5.9670    7.9880 C.2   113  GLU113      0.3649
    152  OE1       11.5670    5.2420    8.4560 O.co2 113  GLU113     -0.2457
    153  OE2       10.7980    7.1880    7.7490 O.co2 113  GLU113     -0.2457
    154  N         12.6530    1.1920    5.0570 N.3   156  GLU156     -0.1231
    155  CA        12.5760    2.6500    5.1320 C.3   156  GLU156      0.1699
    156  C         11.5250    3.2290    4.2070 C.2   156  GLU156      0.2592
    157  O         10.9140    4.2490    4.5290 O.2   156  GLU156     -0.2718
    158  CB        13.9190    3.2970    4.7870 C.3   156  GLU156      0.0402
    159  CG        15.0120    3.0080    5.7730 C.3   156  GLU156      0.1161
    160  CD        15.7510    1.7250    5.4680 C.2   156  GLU156      0.3649
    161  OE1       15.0830    0.7220    5.1420 O.co2 156  GLU156     -0.2457
    162  OE2       17.0030    1.7220    5.5770 O.co2 156  GLU156     -0.2457
    163  N         11.3190    2.5970    3.0550 N.am  157  ASN157     -0.1974
    164  CA        10.3260    3.0920    2.1030 C.3   157  ASN157      0.1688
    165  C          8.9380    2.4710    2.2150 C.2   157  ASN157      0.2292
    166  O          8.1180    2.6300    1.3150 O.2   157  ASN157     -0.2864
    167  CB        10.8310    2.9240    0.6730 C.3   157  ASN157      0.1181
    168  CG        11.9990    3.8240    0.3710 C.2   157  ASN157      0.2629
    169  OD1       12.2750    4.7550    1.1190 O.2   157  ASN157     -0.2716
    170  ND2       12.6830    3.5680   -0.7390 N.am  157  ASN157     -0.0877
    171  N          5.5040    2.3680    4.4460 N.3   159  LEU159     -0.1245
    172  CA         4.6940    2.9350    5.5080 C.3   159  LEU159      0.1561
    173  C          3.5290    1.9980    5.8110 C.2   159  LEU159      0.2260
    174  O          3.1090    1.2110    4.9570 O.2   159  LEU159     -0.2867
    175  CB         4.1560    4.3030    5.0800 C.3   159  LEU159      0.0270
    176  CG         5.1900    5.4020    4.8110 C.3   159  LEU159      0.0019
    177  CD1        4.4770    6.6310    4.3160 C.3   159  LEU159      0.0001
    178  CD2        5.9680    5.7270    6.0800 C.3   159  LEU159      0.0001
    179  N          6.5590    4.2100   -0.7140 N.3   169  THR169     -0.1203
    180  CA         6.8800    5.6050   -0.9780 C.3   169  THR169      0.1994
    181  C          8.1980    5.6940   -1.7430 C.2   169  THR169      0.2617
    182  O          8.9050    4.6920   -1.9110 O.2   169  THR169     -0.2717
    183  CB         7.0690    6.4070    0.3250 C.3   169  THR169      0.1784
    184  OG1        8.2190    5.9120    1.0210 O.3   169  THR169     -0.2211
    185  CG2        5.8500    6.2890    1.2180 C.3   169  THR169      0.0376
    186  N          8.5190    6.9100   -2.1810 N.am  170  ASP170     -0.1973
    187  CA         9.7580    7.2130   -2.8980 C.3   170  ASP170      0.1709
    188  C          9.9340    6.4840   -4.2220 C.2   170  ASP170      0.2293
    189  O         10.3300    5.3150   -4.2530 O.2   170  ASP170     -0.2864
    190  CB        10.9650    6.9140   -2.0090 C.3   170  ASP170      0.1436
    191  CG        12.1930    7.6860   -2.4280 C.2   170  ASP170      0.3671
    192  OD1       12.2530    8.0820   -3.6040 O.co2 170  ASP170     -0.2456
    193  OD2       13.0980    7.8910   -1.5930 O.co2 170  ASP170     -0.2456
    194  N         11.8990    7.7860   -6.5510 N.3   172  GLY172     -0.1225
    195  CA        13.0710    8.4440   -7.0880 C.3   172  GLY172      0.1811
    196  C         13.8980    7.6550   -8.0970 C.2   172  GLY172      0.2280
    197  O         14.6810    8.2500   -8.8160 O.2   172  GLY172     -0.2866
    198  N          6.7290    9.1620   13.6840 N.3   313  PHE313     -0.1241
    199  CA         7.8350    9.6180   12.8610 C.3   313  PHE313      0.1605
    200  C          8.8560   10.3050   13.7660 C.2   313  PHE313      0.2264
    201  O          8.4950   11.0060   14.7110 O.2   313  PHE313     -0.2867
    202  CB         7.3230   10.5920   11.8050 C.3   313  PHE313      0.0534
    203  CG         6.5370    9.9300   10.7140 C.ar  313  PHE313     -0.0203
    204  CD1        7.1880    9.3240    9.6410 C.ar  313  PHE313     -0.0042
    205  CD2        5.1490    9.8610   10.7840 C.ar  313  PHE313     -0.0042
    206  CE1        6.4720    8.6600    8.6640 C.ar  313  PHE313     -0.0003
    207  CE2        4.4190    9.1950    9.8060 C.ar  313  PHE313     -0.0003
    208  CZ         5.0810    8.5930    8.7460 C.ar  313  PHE313     -0.0000
@<TRIPOS>BOND
     1    93    94    1
     2    95    94    1
     3    95    96    2
     4    94    97    1
     5    97    98    1
     6   197   196    2
     7   196   195    1
     8    98    99    1
     9   195   194    1
    10    99   100   ar
    11    99   101   ar
    12    89    90    1
    13    89    86    1
    14    90    92    1
    15    90    91    1
    16    88    87    2
    17    40    38   ar
    18    40    39   ar
    19    38    36   ar
    20    36    35   ar
    21    39    37   ar
    22    87    86    1
    23   189   188    2
    24   188   187    1
    25   105   104    2
    26    37    35   ar
    27    35    34    1
    28    86    85    1
    29    34    31    1
    30    76    75    1
    31   192   191   ar
    32    85    79   am
    33   115   114    1
    34   115   116    1
    35    75    74    1
    36   114   113    1
    37   104   103    1
    38   187   186    1
    39   187   190    1
    40    71    70    2
    41    74    73    1
    42    33    32    2
    43   102   103    1
    44   191   190    1
    45   191   193   ar
    46   186   181   am
    47    31    32    1
    48    31    30    1
    49    79    78    1
    50    79    80    2
    51    73    72    1
    52   103   106    1
    53   182   181    2
    54    32    41   am
    55   113   110    1
    56    72    69    1
    57   181   180    1
    58   108   106    1
    59    78    77    1
    60    78    81    1
    61    70    77   am
    62    70    69    1
    63   110   109    1
    64   110   111    1
    65    30    26   am
    66    29    28    1
    67    28    25    1
    68    83    81    1
    69   106   107    1
    70   125   123   ar
    71   180   179    1
    72   180   183    1
    73    69    68    1
    74    26    27    2
    75    26    25    1
    76    41    42    1
    77   170   168   am
    78    81    82    1
    79    42    43    1
    80   111   117   am
    81   111   112    2
    82   117   118    1
    83    25    24    1
    84   123   122    1
    85   123   124   ar
    86    82    84    1
    87   122   121    1
    88   183   184    1
    89   183   185    1
    90   168   167    1
    91   168   169    2
    92    66    65    2
    93   167   164    1
    94   121   118    1
    95    43    45   am
    96    43    44    2
    97    24    22   am
    98   118   119    1
    99    45    46    1
   100   166   165    2
   101    23    22    2
   102    48    47    2
   103    22    21    1
   104    65    64    1
   105   120   119    2
   106    62    60    1
   107   164   165    1
   108   164   163    1
   109   119   126   am
   110    47    46    1
   111    47    56   am
   112    46    49    1
   113    21    20    1
   114    63    64    1
   115    67    64    1
   116   163   156   am
   117   126   127    1
   118    57    56    1
   119    57    60    1
   120    57    58    1
   121    60    61    1
   122    20    15   am
   123    49    50    1
   124    51    50    1
   125    51    52    1
   126   144   142    1
   127    15    16    2
   128    15    14    1
   129   156   157    2
   130   156   155    1
   131   177   176    1
   132   171   172    1
   133   127   128    1
   134   127   130    1
   135    58    59    2
   136    52    53    2
   137   158   155    1
   138   158   159    1
   139   176   175    1
   140   176   178    1
   141    12    11    2
   142   174   173    2
   143    14    13    1
   144    14    17    1
   145    18    17    1
   146   154   155    1
   147   175   172    1
   148   128   129    2
   149   128   138   am
   150   161   160   ar
   151   142   143    1
   152   142   139    1
   153   160   162   ar
   154   160   159    1
   155   138   139    1
   156   130   131    1
   157   172   173    1
   158    11    13   am
   159    11    10    1
   160    17    19    1
   161    53    54    1
   162    53    55    1
   163   139   140    1
   164    10     9    1
   165   131   132   ar
   166   131   133   ar
   167   132   134   ar
   168     9     3   am
   169   140   141    2
   170   150   151    1
   171   150   149    1
   172   153   151   ar
   173     7     6    1
   174   151   152   ar
   175   133   135   ar
   176     3     4    2
   177     3     2    1
   178     5     6    1
   179     5     2    1
   180   134   136   ar
   181     1     2    1
   182   149   146    1
   183   146   147    1
   184   146   145    1
   185     6     8    1
   186   206   208   ar
   187   206   204   ar
   188   208   207   ar
   189   147   148    2
   190   135   136   ar
   191   136   137    1
   192   204   203   ar
   193   207   205   ar
   194   203   205   ar
   195   203   202    1
   196   202   199    1
   197   199   198    1
   198   199   200    1
   199   200   201    2
