@<TRIPOS>MOLECULE
tmp/2uzvB00.pdb
 179 167 0 0 0
SMALL
GASTEIGER

@<TRIPOS>ATOM
      1  N          8.7640   14.9480    8.3910 N.3    35  LEU35      -0.1231
      2  CA         8.6730   13.5500    8.8060 C.3    35  LEU35       0.1693
      3  C          9.7290   12.7000    8.1310 C.2    35  LEU35       0.2593
      4  O          9.8190   11.4940    8.3700 O.2    35  LEU35      -0.2718
      5  CB         7.3050   12.9710    8.4460 C.3    35  LEU35       0.0284
      6  CG         6.0360   13.8160    8.5890 C.3    35  LEU35       0.0019
      7  CD1        4.8510   12.9360    8.2490 C.3    35  LEU35       0.0001
      8  CD2        5.8940   14.3710   10.0010 C.3    35  LEU35       0.0001
      9  N         10.5170   13.3250    7.2670 N.am   36  GLY36      -0.1942
     10  CA        11.5560   12.6020    6.5620 C.3    36  GLY36       0.2014
     11  C         12.4810   13.5530    5.8250 C.2    36  GLY36       0.2640
     12  O         12.1010   14.6710    5.4740 O.2    36  GLY36      -0.2714
     13  N         13.7050   13.1120    5.5760 N.am   37  THR37      -0.1936
     14  CA        14.6510   13.9640    4.8820 C.3    37  THR37       0.2028
     15  C         15.5170   13.2030    3.8730 C.2    37  THR37       0.2643
     16  O         15.5750   11.9730    3.8730 O.2    37  THR37      -0.2714
     17  CB        15.5400   14.6960    5.8930 C.3    37  THR37       0.1808
     18  OG1       16.3570   15.6400    5.1950 O.3    37  THR37      -0.2208
     19  CG2       16.4150   13.7140    6.6450 C.3    37  THR37       0.0379
     20  N         16.1810   13.9460    3.0000 N.am   38  GLY38      -0.1939
     21  CA        17.0060   13.3100    1.9940 C.3    38  GLY38       0.2014
     22  C         18.1390   14.1860    1.5080 C.2    38  GLY38       0.2639
     23  O         18.3050   15.3220    1.9560 O.2    38  GLY38      -0.2714
     24  N         18.9200   13.6610    0.5740 N.am   39  SER39      -0.1949
     25  CA        20.0550   14.3960    0.0500 C.3    39  SER39       0.1924
     26  C         19.6720   15.6030   -0.7960 C.2    39  SER39       0.2314
     27  O         20.4890   16.4980   -1.0020 O.2    39  SER39      -0.2863
     28  CB        20.9440   13.4540   -0.7430 C.3    39  SER39       0.2116
     29  OG        21.3770   12.3930    0.0780 O.3    39  SER39      -0.2180
     30  N         10.4930   15.7650    3.5170 N.3    43  VAL43      -0.1245
     31  CA         9.0760   15.4690    3.4140 C.3    43  VAL43       0.1561
     32  C          8.3760   16.1180    4.6110 C.2    43  VAL43       0.2260
     33  O          8.8770   16.0640    5.7340 O.2    43  VAL43      -0.2867
     34  CB         8.8100   13.9520    3.3940 C.3    43  VAL43       0.0252
     35  CG1        7.3620   13.6620    3.7230 C.3    43  VAL43       0.0019
     36  CG2        9.1000   13.4150    2.0200 C.3    43  VAL43       0.0019
     37  N          1.0990   14.6660    2.3570 N.3    56  ALA56      -0.1245
     38  CA         2.5260   14.5260    2.5510 C.3    56  ALA56       0.1562
     39  C          3.0130   15.3420    1.3780 C.2    56  ALA56       0.2260
     40  O          2.5270   15.1660    0.2610 O.2    56  ALA56      -0.2867
     41  CB         2.9560   13.0990    2.3970 C.3    56  ALA56       0.0290
     42  N          6.4480   16.5710   -0.6770 N.3    58  LYS58      -0.1245
     43  CA         7.8530   16.3130   -0.8700 C.3    58  LYS58       0.1561
     44  C          8.4590   17.4910   -1.5920 C.2    58  LYS58       0.2260
     45  O          8.1310   17.7780   -2.7430 O.2    58  LYS58      -0.2867
     46  CB         8.0190   15.0500   -1.6940 C.3    58  LYS58       0.0271
     47  CG         9.4240   14.5860   -1.8810 C.3    58  LYS58       0.0035
     48  CD         9.3330   13.2750   -2.6270 C.3    58  LYS58       0.0206
     49  CE        10.6560   12.7400   -3.0580 C.3    58  LYS58       0.1093
     50  NZ        10.3770   11.5120   -3.8370 N.3    58  LYS58      -0.1314
     51  N         10.0980   10.0800  -11.7210 N.3    77  GLU77      -0.1245
     52  CA         9.2530    9.9550  -10.5330 C.3    77  GLU77       0.1567
     53  C          7.8930   10.6280  -10.6570 C.2    77  GLU77       0.2260
     54  O          6.8660    9.9720  -10.5110 O.2    77  GLU77      -0.2867
     55  CB         9.9900   10.4710   -9.2870 C.3    77  GLU77       0.0388
     56  CG         9.0920   10.6080   -8.0550 C.3    77  GLU77       0.1160
     57  CD         9.8540   10.6380   -6.7400 C.2    77  GLU77       0.3649
     58  OE1       10.8970   11.3240   -6.6540 O.co2  77  GLU77      -0.2457
     59  OE2        9.3940    9.9760   -5.7880 O.co2  77  GLU77      -0.2457
     60  N          1.5270    4.8760   -2.7130 N.3    90  VAL90      -0.1245
     61  CA         1.1310    6.2020   -2.2590 C.3    90  VAL90       0.1561
     62  C          0.6220    7.0060   -3.4490 C.2    90  VAL90       0.2260
     63  O          1.0690    6.8210   -4.5840 O.2    90  VAL90      -0.2867
     64  CB         2.2850    6.9390   -1.5830 C.3    90  VAL90       0.0252
     65  CG1        2.5170    6.3460   -0.2020 C.3    90  VAL90       0.0019
     66  CG2        3.5550    6.8330   -2.4440 C.3    90  VAL90       0.0019
     67  N          0.9730   14.3130   -1.7010 N.3   106  MET106     -0.1230
     68  CA         0.3530   13.0130   -1.7560 C.3   106  MET106      0.1702
     69  C         -0.4600   12.6820   -0.5230 C.2   106  MET106      0.2592
     70  O         -0.5160   13.4490    0.4320 O.2   106  MET106     -0.2718
     71  CB         1.4640   11.9930   -1.9570 C.3   106  MET106      0.0401
     72  CG         2.3910   12.4140   -3.1070 C.3   106  MET106      0.0596
     73  SD         3.9040   11.5200   -3.1420 S.3   106  MET106     -0.1393
     74  CE         4.8970   12.5510   -2.1130 C.3   106  MET106      0.0692
     75  N         -1.1010   11.5240   -0.5630 N.am  107  GLU107     -0.1966
     76  CA        -1.9150   11.0490    0.5380 C.3   107  GLU107      0.1733
     77  C         -0.9700   10.8000    1.7190 C.2   107  GLU107      0.2616
     78  O          0.1160   10.2450    1.5610 O.2   107  GLU107     -0.2715
     79  CB        -2.6090    9.7630    0.1010 C.3   107  GLU107      0.0429
     80  CG        -3.7820    9.2940    0.9140 C.3   107  GLU107      0.1163
     81  CD        -4.2380    7.9200    0.4400 C.2   107  GLU107      0.3649
     82  OE1       -3.3770    7.0130    0.3910 O.co2 107  GLU107     -0.2457
     83  OE2       -5.4380    7.7350    0.1120 O.co2 107  GLU107     -0.2457
     84  N         -1.3820   11.2310    2.9050 N.am  108  TYR108     -0.1960
     85  CA        -0.5670   11.0630    4.0920 C.3   108  TYR108      0.1771
     86  C         -0.8080    9.7000    4.7250 C.2   108  TYR108      0.2619
     87  O         -1.9550    9.3020    4.9400 O.2   108  TYR108     -0.2715
     88  CB        -0.8860   12.1780    5.0800 C.3   108  TYR108      0.0574
     89  CG        -0.2420   12.0170    6.4340 C.ar  108  TYR108     -0.0198
     90  CD1        1.1420   11.9240    6.5640 C.ar  108  TYR108     -0.0009
     91  CD2       -1.0210   11.9730    7.5920 C.ar  108  TYR108     -0.0009
     92  CE1        1.7360   11.7930    7.8150 C.ar  108  TYR108      0.0417
     93  CE2       -0.4360   11.8430    8.8460 C.ar  108  TYR108      0.0417
     94  CZ         0.9380   11.7560    8.9480 C.ar  108  TYR108      0.1957
     95  OH         1.5150   11.6520   10.1820 O.3   108  TYR108     -0.2866
     96  N          0.2820    8.9800    4.9950 N.am  109  VAL109     -0.1977
     97  CA         0.2210    7.6570    5.6170 C.3   109  VAL109      0.1596
     98  C          0.7180    7.7900    7.0550 C.2   109  VAL109      0.2287
     99  O          1.9160    7.7160    7.3080 O.2   109  VAL109     -0.2864
    100  CB         1.1220    6.6450    4.8790 C.3   109  VAL109      0.0276
    101  CG1        1.0270    5.2880    5.5550 C.3   109  VAL109      0.0022
    102  CG2        0.7150    6.5350    3.4290 C.3   109  VAL109      0.0022
    103  N          7.1490    4.4820    9.3370 N.3   113  GLU113     -0.1245
    104  CA         7.9650    3.5720    8.5350 C.3   113  GLU113      0.1567
    105  C          8.1120    2.1670    9.0790 C.2   113  GLU113      0.2260
    106  O          8.3330    1.9690   10.2760 O.2   113  GLU113     -0.2867
    107  CB         9.3650    4.1440    8.3530 C.3   113  GLU113      0.0388
    108  CG         9.4190    5.5700    7.8480 C.3   113  GLU113      0.1160
    109  CD        10.8400    6.0050    7.6090 C.2   113  GLU113      0.3649
    110  OE1       11.7530    5.2030    7.8980 O.co2 113  GLU113     -0.2457
    111  OE2       11.0520    7.1380    7.1340 O.co2 113  GLU113     -0.2457
    112  N         14.0300    0.6650   -5.4510 N.3   152  ASP152     -0.1239
    113  CA        14.4600    1.2060   -4.1690 C.3   152  ASP152      0.1674
    114  C         13.6380    0.6740   -2.9960 C.2   152  ASP152      0.2266
    115  O         13.2450    1.4060   -2.1060 O.2   152  ASP152     -0.2867
    116  CB        14.4730    2.7430   -4.2050 C.3   152  ASP152      0.1410
    117  CG        15.4100    3.3490   -3.1540 C.2   152  ASP152      0.3668
    118  OD1       16.3020    2.6340   -2.6300 O.co2 152  ASP152     -0.2456
    119  OD2       15.2670    4.5460   -2.8520 O.co2 152  ASP152     -0.2456
    120  N         12.9580   -0.9360    0.4080 N.3   154  LYS154     -0.1245
    121  CA        13.6330   -0.9920    1.7020 C.3   154  LYS154      0.1561
    122  C         12.6960   -0.4910    2.8160 C.2   154  LYS154      0.2260
    123  O         11.9200    0.4390    2.6090 O.2   154  LYS154     -0.2867
    124  CB        14.9210   -0.1570    1.6810 C.3   154  LYS154      0.0271
    125  CG        14.7430    1.3080    1.3290 C.3   154  LYS154      0.0035
    126  CD        16.0670    2.0270    1.4720 C.3   154  LYS154      0.0206
    127  CE        16.0980    3.3390    0.7200 C.3   154  LYS154      0.1093
    128  NZ        17.3730    4.0980    0.9440 N.3   154  LYS154     -0.1314
    129  N         12.7180    1.5730    5.0150 N.3   156  GLU156     -0.1231
    130  CA        12.6370    3.0210    5.0820 C.3   156  GLU156      0.1699
    131  C         11.6360    3.5920    4.0960 C.2   156  GLU156      0.2592
    132  O         11.0680    4.6550    4.3340 O.2   156  GLU156     -0.2718
    133  CB        14.0080    3.6540    4.8160 C.3   156  GLU156      0.0402
    134  CG        15.0890    3.2670    5.7990 C.3   156  GLU156      0.1161
    135  CD        15.8380    2.0250    5.3900 C.2   156  GLU156      0.3649
    136  OE1       15.2110    1.1070    4.8360 O.co2 156  GLU156     -0.2457
    137  OE2       17.0550    1.9580    5.6390 O.co2 156  GLU156     -0.2457
    138  N         11.4230    2.8970    2.9840 N.am  157  ASN157     -0.1974
    139  CA        10.4930    3.3870    1.9690 C.3   157  ASN157      0.1688
    140  C          9.1050    2.7490    2.0330 C.2   157  ASN157      0.2292
    141  O          8.2500    3.0370    1.1970 O.2   157  ASN157     -0.2864
    142  CB        11.0790    3.1930    0.5720 C.3   157  ASN157      0.1181
    143  CG        12.3460    3.9880    0.3600 C.2   157  ASN157      0.2629
    144  OD1       12.5310    5.0400    0.9640 O.2   157  ASN157     -0.2716
    145  ND2       13.2170    3.5020   -0.5150 N.am  157  ASN157     -0.0877
    146  N          5.6000    2.2810    4.1280 N.3   159  LEU159     -0.1245
    147  CA         4.7860    2.9180    5.1530 C.3   159  LEU159      0.1561
    148  C          3.5480    2.1200    5.5420 C.2   159  LEU159      0.2260
    149  O          2.8930    1.5360    4.6880 O.2   159  LEU159     -0.2867
    150  CB         4.3520    4.3060    4.6890 C.3   159  LEU159      0.0270
    151  CG         5.4060    5.4080    4.6080 C.3   159  LEU159      0.0019
    152  CD1        4.7550    6.7150    4.2340 C.3   159  LEU159      0.0001
    153  CD2        6.1080    5.5320    5.9470 C.3   159  LEU159      0.0001
    154  N          6.6240    3.9450   -1.0870 N.3   169  THR169     -0.1203
    155  CA         6.9000    5.3550   -1.2960 C.3   169  THR169      0.1994
    156  C          8.2370    5.5180   -1.9830 C.2   169  THR169      0.2617
    157  O          9.0200    4.5760   -2.0690 O.2   169  THR169     -0.2717
    158  CB         6.9710    6.1260    0.0240 C.3   169  THR169      0.1784
    159  OG1        7.9420    5.5130    0.8780 O.3   169  THR169     -0.2211
    160  CG2        5.6190    6.1400    0.7070 C.3   169  THR169      0.0376
    161  N          8.4940    6.7240   -2.4670 N.am  170  ASP170     -0.1973
    162  CA         9.7530    7.0260   -3.1180 C.3   170  ASP170      0.1709
    163  C          9.8870    6.3380   -4.4660 C.2   170  ASP170      0.2293
    164  O         10.0760    5.1240   -4.5400 O.2   170  ASP170     -0.2864
    165  CB        10.9240    6.6070   -2.2160 C.3   170  ASP170      0.1436
    166  CG        12.2210    7.2930   -2.5910 C.2   170  ASP170      0.3671
    167  OD1       12.3630    7.7080   -3.7600 O.co2 170  ASP170     -0.2456
    168  OD2       13.1060    7.4100   -1.7230 O.co2 170  ASP170     -0.2456
    169  N          6.4960    8.9160   13.5230 N.3   313  PHE313     -0.1241
    170  CA         7.5730    9.4660   12.7090 C.3   313  PHE313      0.1605
    171  C          8.5570   10.1320   13.6520 C.2   313  PHE313      0.2264
    172  O          8.1560   10.6910   14.6720 O.2   313  PHE313     -0.2867
    173  CB         7.0260   10.5000   11.7180 C.3   313  PHE313      0.0534
    174  CG         6.2650    9.8970   10.5670 C.ar  313  PHE313     -0.0203
    175  CD1        6.9410    9.3250    9.4910 C.ar  313  PHE313     -0.0042
    176  CD2        4.8740    9.8860   10.5640 C.ar  313  PHE313     -0.0042
    177  CE1        6.2480    8.7540    8.4360 C.ar  313  PHE313     -0.0003
    178  CE2        4.1650    9.3140    9.5070 C.ar  313  PHE313     -0.0003
    179  CZ         4.8530    8.7490    8.4440 C.ar  313  PHE313     -0.0000
@<TRIPOS>BOND
     1    51    52    1
     2    53    52    1
     3    53    54    2
     4    52    55    1
     5    55    56    1
     6    56    57    1
     7    57    58   ar
     8    57    59   ar
     9   112   113    1
    10    63    62    2
    11   164   163    2
    12   163   162    1
    13   116   113    1
    14   116   117    1
    15   113   114    1
    16    50    49    1
    17   167   166   ar
    18    62    61    1
    19   117   119   ar
    20   117   118   ar
    21    73    72    1
    22    73    74    1
    23   162   161    1
    24   162   165    1
    25    72    71    1
    26    49    48    1
    27   114   115    2
    28    45    44    2
    29    60    61    1
    30    48    47    1
    31   166   165    1
    32   166   168   ar
    33   161   156   am
    34    66    64    1
    35    61    64    1
    36   157   156    2
    37   156   155    1
    38    71    68    1
    39    47    46    1
    40    68    67    1
    41    68    69    1
    42    46    43    1
    43    44    43    1
    44    64    65    1
    45   155   154    1
    46   155   158    1
    47    27    26    2
    48    43    42    1
    49    26    25    1
    50    28    25    1
    51    28    29    1
    52    75    69   am
    53    75    76    1
    54    69    70    2
    55   145   143   am
    56   158   160    1
    57   158   159    1
    58    25    24    1
    59    79    76    1
    60    79    80    1
    61    83    81   ar
    62    40    39    2
    63   143   142    1
    64   143   144    2
    65    82    81   ar
    66   120   121    1
    67    81    80    1
    68    76    77    1
    69   142   139    1
    70    24    22   am
    71   127   128    1
    72   127   126    1
    73   141   140    2
    74   125   126    1
    75   125   124    1
    76    39    38    1
    77    22    23    2
    78    22    21    1
    79    78    77    2
    80   124   121    1
    81   121   122    1
    82    77    84   am
    83   139   140    1
    84   139   138    1
    85    21    20    1
    86    36    34    1
    87    37    38    1
    88    41    38    1
    89   123   122    2
    90    84    85    1
    91   138   131   am
    92    20    15   am
    93    34    31    1
    94    34    35    1
    95    31    30    1
    96    31    32    1
    97   102   100    1
    98    15    16    2
    99    15    14    1
   100    85    86    1
   101    85    88    1
   102   131   132    2
   103   131   130    1
   104   146   147    1
   105   152   151    1
   106   151   150    1
   107   151   153    1
   108    32    33    2
   109   149   148    2
   110   150   147    1
   111    86    87    2
   112    86    96   am
   113   133   130    1
   114   133   134    1
   115   136   135   ar
   116   100   101    1
   117   100    97    1
   118    14    13    1
   119    14    17    1
   120    96    97    1
   121   129   130    1
   122    88    89    1
   123   147   148    1
   124    18    17    1
   125   135   137   ar
   126   135   134    1
   127    12    11    2
   128    13    11   am
   129    97    98    1
   130    11    10    1
   131    17    19    1
   132    89    90   ar
   133    89    91   ar
   134    10     9    1
   135    90    92   ar
   136    98    99    2
   137   111   109   ar
   138     9     3   am
   139    91    93   ar
   140   109   108    1
   141   109   110   ar
   142    92    94   ar
   143   108   107    1
   144     3     4    2
   145     3     2    1
   146     7     6    1
   147   107   104    1
   148     1     2    1
   149   177   179   ar
   150   177   175   ar
   151   179   178   ar
   152     5     6    1
   153     5     2    1
   154   104   105    1
   155   104   103    1
   156     6     8    1
   157    93    94   ar
   158    94    95    1
   159   105   106    2
   160   175   174   ar
   161   178   176   ar
   162   176   174   ar
   163   174   173    1
   164   173   170    1
   165   170   169    1
   166   170   171    1
   167   171   172    2
