@<TRIPOS>MOLECULE
tmp/2uzwA00.pdb
 183 173 0 0 0
SMALL
GASTEIGER

@<TRIPOS>ATOM
      1  N          8.8320   14.9790    7.9830 N.3    35  LEU35      -0.1231
      2  CA         8.6290   13.5750    8.3200 C.3    35  LEU35       0.1693
      3  C          9.7950   12.7130    7.8660 C.2    35  LEU35       0.2593
      4  O          9.9140   11.5370    8.2470 O.2    35  LEU35      -0.2718
      5  CB         7.3820   13.0650    7.6160 C.3    35  LEU35       0.0284
      6  CG         6.0540   13.7490    7.9110 C.3    35  LEU35       0.0019
      7  CD1        5.0340   13.2250    6.9080 C.3    35  LEU35       0.0001
      8  CD2        5.6170   13.4740    9.3370 C.3    35  LEU35       0.0001
      9  N         10.6330   13.2890    7.0120 N.am   36  GLY36      -0.1942
     10  CA        11.7490   12.5520    6.4630 C.3    36  GLY36       0.2014
     11  C         12.6720   13.5260    5.7890 C.2    36  GLY36       0.2640
     12  O         12.2800   14.6190    5.3950 O.2    36  GLY36      -0.2714
     13  N         13.9060   13.1230    5.6060 N.am   37  THR37      -0.1936
     14  CA        14.8540   14.0320    5.0230 C.3    37  THR37       0.2028
     15  C         15.6860   13.2970    3.9500 C.2    37  THR37       0.2642
     16  O         15.6100   12.0710    3.8240 O.2    37  THR37      -0.2714
     17  CB        15.6970   14.5790    6.1680 C.3    37  THR37       0.1808
     18  OG1       16.6790   15.4730    5.6650 O.3    37  THR37      -0.2208
     19  CG2       16.3870   13.4460    6.8870 C.3    37  THR37       0.0379
     20  N         16.3990   14.0320    3.1110 N.am   38  GLY38      -0.1954
     21  CA        17.1830   13.3620    2.0980 C.3    38  GLY38       0.1869
     22  C         18.1960   14.2490    1.4210 C.2    38  GLY38       0.2309
     23  O         18.1660   15.4650    1.5790 O.2    38  GLY38      -0.2863
     24  N         16.2030   17.2620   -0.3590 N.3    41  GLY41      -0.1210
     25  CA        14.8980   17.7270    0.0530 C.3    41  GLY41       0.1956
     26  C         14.4330   17.0810    1.3450 C.2    41  GLY41       0.2612
     27  O         15.1690   16.3190    1.9730 O.2    41  GLY41      -0.2717
     28  N         13.2090   17.4190    1.7410 N.am   42  ARG42      -0.1965
     29  CA        12.5690   16.8860    2.9390 C.3    42  ARG42       0.1729
     30  C         11.0630   16.7210    2.6500 C.2    42  ARG42       0.2616
     31  O         10.5000   17.4150    1.8050 O.2    42  ARG42      -0.2715
     32  CB        12.7920   17.8350    4.1260 C.3    42  ARG42       0.0348
     33  CG        12.2060   19.2430    3.9800 C.3    42  ARG42       0.0492
     34  CD        13.0720   20.2910    4.6920 C.3    42  ARG42       0.2205
     35  NE        13.2370   20.0000    6.1180 N.pl3  42  ARG42      -0.0865
     36  CZ        14.4020   19.8550    6.7620 C.cat  42  ARG42       0.5346
     37  NH1       15.5720   19.9810    6.1380 N.pl3  42  ARG42       0.1354
     38  NH2       14.3990   19.4830    8.0340 N.pl3  42  ARG42       0.1354
     39  N         10.4380   15.7380    3.2720 N.am   43  VAL43      -0.1977
     40  CA         9.0160   15.5380    3.0930 C.3    43  VAL43       0.1596
     41  C          8.3910   16.1830    4.3090 C.2    43  VAL43       0.2287
     42  O          8.8270   15.9360    5.4260 O.2    43  VAL43      -0.2864
     43  CB         8.6580   14.0750    3.1020 C.3    43  VAL43       0.0276
     44  CG1        7.1510   13.9120    2.9370 C.3    43  VAL43       0.0022
     45  CG2        9.4480   13.3460    2.0290 C.3    43  VAL43       0.0022
     46  N          1.5490   14.7360    2.5040 N.3    56  ALA56      -0.1245
     47  CA         2.9890   14.7350    2.7160 C.3    56  ALA56       0.1562
     48  C          3.4510   15.4550    1.4600 C.2    56  ALA56       0.2260
     49  O          3.1140   15.0400    0.3650 O.2    56  ALA56      -0.2867
     50  CB         3.5140   13.3220    2.7270 C.3    56  ALA56       0.0290
     51  N          6.5570   16.6480   -0.8210 N.3    58  LYS58      -0.1245
     52  CA         7.9830   16.4230   -1.0290 C.3    58  LYS58       0.1561
     53  C          8.5560   17.6870   -1.6280 C.2    58  LYS58       0.2260
     54  O          8.0210   18.2020   -2.5940 O.2    58  LYS58      -0.2867
     55  CB         8.1880   15.2620   -1.9710 C.3    58  LYS58       0.0271
     56  CG         9.6190   14.8280   -2.1190 C.3    58  LYS58       0.0035
     57  CD         9.6330   13.4100   -2.6400 C.3    58  LYS58       0.0206
     58  CE        11.0310   12.8820   -2.8070 C.3    58  LYS58       0.1093
     59  NZ        10.9530   11.4420   -3.1160 N.3    58  LYS58      -0.1314
     60  N          1.5390    5.0190   -2.8200 N.3    90  VAL90      -0.1245
     61  CA         0.9590    6.2670   -2.3300 C.3    90  VAL90       0.1561
     62  C          0.4620    7.1400   -3.4760 C.2    90  VAL90       0.2260
     63  O          1.1220    7.2450   -4.5130 O.2    90  VAL90      -0.2867
     64  CB         1.9240    7.1260   -1.4990 C.3    90  VAL90       0.0252
     65  CG1        1.9310    6.6700   -0.0610 C.3    90  VAL90       0.0019
     66  CG2        3.3170    7.0840   -2.1000 C.3    90  VAL90       0.0019
     67  N          1.6930   14.3350   -1.7640 N.3   106  MET106     -0.1230
     68  CA         1.1520   12.9860   -1.7100 C.3   106  MET106      0.1702
     69  C          0.2620   12.8170   -0.5180 C.2   106  MET106      0.2592
     70  O          0.0610   13.7350    0.2590 O.2   106  MET106     -0.2718
     71  CB         2.2720   11.9480   -1.6240 C.3   106  MET106      0.0401
     72  CG         3.0470   11.8240   -2.8850 C.3   106  MET106      0.0596
     73  SD         4.7040   11.3950   -2.5640 S.3   106  MET106     -0.1393
     74  CE         5.3480   12.9580   -2.0430 C.3   106  MET106      0.0692
     75  N         -0.2560   11.6150   -0.3730 N.am  107  GLU107     -0.1966
     76  CA        -1.1390   11.2740    0.7140 C.3   107  GLU107      0.1733
     77  C         -0.3730   10.9180    2.0070 C.2   107  GLU107      0.2616
     78  O          0.5570   10.0680    2.0100 O.2   107  GLU107     -0.2715
     79  CB        -2.0210   10.1320    0.2600 C.3   107  GLU107      0.0429
     80  CG        -2.8940    9.5860    1.3130 C.3   107  GLU107      0.1163
     81  CD        -3.9240    8.6740    0.7260 C.2   107  GLU107      0.3649
     82  OE1       -3.5240    7.6310    0.1450 O.co2 107  GLU107     -0.2457
     83  OE2       -5.1260    9.0280    0.8100 O.co2 107  GLU107     -0.2457
     84  N         -0.7790   11.5780    3.1000 N.am  108  TYR108     -0.1960
     85  CA        -0.1600   11.3790    4.3950 C.3   108  TYR108      0.1771
     86  C         -0.4990    9.9980    4.9620 C.2   108  TYR108      0.2619
     87  O         -1.6490    9.7080    5.2570 O.2   108  TYR108     -0.2715
     88  CB        -0.5820   12.5060    5.3480 C.3   108  TYR108      0.0574
     89  CG         0.0460   12.3900    6.7260 C.ar  108  TYR108     -0.0198
     90  CD1        1.4100   12.5140    6.8970 C.ar  108  TYR108     -0.0009
     91  CD2       -0.7160   12.0550    7.8350 C.ar  108  TYR108     -0.0009
     92  CE1        1.9960   12.2950    8.1200 C.ar  108  TYR108      0.0417
     93  CE2       -0.1320   11.8320    9.0730 C.ar  108  TYR108      0.0417
     94  CZ         1.2180   11.9490    9.2030 C.ar  108  TYR108      0.1957
     95  OH         1.8090   11.6840   10.4040 O.3   108  TYR108     -0.2866
     96  N          0.4850    9.1150    5.0230 N.am  109  VAL109     -0.1977
     97  CA         0.2680    7.7730    5.5520 C.3   109  VAL109      0.1596
     98  C          0.6530    7.8380    7.0220 C.2   109  VAL109      0.2287
     99  O          1.8270    7.8870    7.3700 O.2   109  VAL109     -0.2864
    100  CB         1.1190    6.7030    4.8190 C.3   109  VAL109      0.0276
    101  CG1        0.7560    5.2950    5.3220 C.3   109  VAL109      0.0022
    102  CG2        0.9080    6.7880    3.3070 C.3   109  VAL109      0.0022
    103  N          7.0140    4.4830    9.2390 N.3   113  GLU113     -0.1245
    104  CA         7.7470    3.5650    8.3790 C.3   113  GLU113      0.1567
    105  C          7.7850    2.1560    8.9160 C.2   113  GLU113      0.2260
    106  O          7.6920    1.9540   10.1180 O.2   113  GLU113     -0.2867
    107  CB         9.1690    4.0700    8.1520 C.3   113  GLU113      0.0388
    108  CG         9.2550    5.4760    7.5140 C.3   113  GLU113      0.1160
    109  CD        10.6390    6.0420    7.6030 C.2   113  GLU113      0.3649
    110  OE1       11.5430    5.2490    7.9350 O.co2 113  GLU113     -0.2457
    111  OE2       10.8320    7.2610    7.3700 O.co2 113  GLU113     -0.2457
    112  N         13.1800   -1.1580    0.4770 N.3   154  LYS154     -0.1245
    113  CA        13.8060   -1.2370    1.7900 C.3   154  LYS154      0.1561
    114  C         12.7170   -0.7940    2.7510 C.2   154  LYS154      0.2260
    115  O         11.7480   -0.1580    2.3280 O.2   154  LYS154     -0.2867
    116  CB        15.0210   -0.3160    1.8980 C.3   154  LYS154      0.0271
    117  CG        14.7110    1.1520    1.6710 C.3   154  LYS154      0.0035
    118  CD        15.9800    1.9720    1.5150 C.3   154  LYS154      0.0206
    119  CE        15.6310    3.3610    1.0640 C.3   154  LYS154      0.1093
    120  NZ        16.8130    4.1970    0.8840 N.3   154  LYS154     -0.1314
    121  N         12.5770    1.4580    4.9010 N.3   156  GLU156     -0.1231
    122  CA        12.4650    2.8980    5.0030 C.3   156  GLU156      0.1699
    123  C         11.4800    3.4480    3.9960 C.2   156  GLU156      0.2592
    124  O         10.9350    4.5370    4.1850 O.2   156  GLU156     -0.2718
    125  CB        13.8200    3.5700    4.7490 C.3   156  GLU156      0.0402
    126  CG        14.9420    3.2990    5.7540 C.3   156  GLU156      0.1161
    127  CD        15.7150    1.9980    5.5160 C.2   156  GLU156      0.3649
    128  OE1       15.1030    0.9430    5.2720 O.co2 156  GLU156     -0.2457
    129  OE2       16.9590    2.0080    5.6370 O.co2 156  GLU156     -0.2457
    130  N         11.2800    2.7390    2.8910 N.am  157  ASN157     -0.1974
    131  CA        10.3520    3.2310    1.8420 C.3   157  ASN157      0.1688
    132  C          8.9460    2.6740    1.8650 C.2   157  ASN157      0.2292
    133  O          8.1560    2.9890    0.9840 O.2   157  ASN157     -0.2864
    134  CB        10.9300    3.0550    0.4180 C.3   157  ASN157      0.1181
    135  CG        12.0670    4.0140    0.1230 C.2   157  ASN157      0.2629
    136  OD1       12.3340    4.9230    0.9040 O.2   157  ASN157     -0.2716
    137  ND2       12.7560    3.7990   -0.9940 N.am  157  ASN157     -0.0877
    138  N          5.5180    2.3080    4.0700 N.3   159  LEU159     -0.1245
    139  CA         4.7930    2.8960    5.1640 C.3   159  LEU159      0.1561
    140  C          3.5730    2.0330    5.5140 C.2   159  LEU159      0.2260
    141  O          3.0940    1.2710    4.6640 O.2   159  LEU159     -0.2867
    142  CB         4.3810    4.2960    4.7400 C.3   159  LEU159      0.0270
    143  CG         5.5820    5.2400    4.6070 C.3   159  LEU159      0.0019
    144  CD1        5.2710    6.4760    3.8030 C.3   159  LEU159      0.0001
    145  CD2        5.9570    5.6650    6.0090 C.3   159  LEU159      0.0001
    146  N          6.3170    4.2910   -1.0300 N.3   169  THR169     -0.1203
    147  CA         6.5830    5.6970   -1.3770 C.3   169  THR169      0.1994
    148  C          7.9130    5.6980   -2.1400 C.2   169  THR169      0.2617
    149  O          8.4770    4.6470   -2.4500 O.2   169  THR169     -0.2717
    150  CB         6.7500    6.5800   -0.1040 C.3   169  THR169      0.1784
    151  OG1        7.5550    5.9050    0.8790 O.3   169  THR169     -0.2211
    152  CG2        5.4540    6.8520    0.5130 C.3   169  THR169      0.0376
    153  N          8.4100    6.8880   -2.4280 N.am  170  ASP170     -0.1973
    154  CA         9.7090    7.0690   -3.0710 C.3   170  ASP170      0.1709
    155  C          9.9310    6.3650   -4.3940 C.2   170  ASP170      0.2293
    156  O         10.4970    5.2770   -4.4250 O.2   170  ASP170     -0.2864
    157  CB        10.8030    6.6350   -2.1000 C.3   170  ASP170      0.1436
    158  CG        12.1320    7.3530   -2.3340 C.2   170  ASP170      0.3671
    159  OD1       12.2470    8.3220   -3.1390 O.co2 170  ASP170     -0.2456
    160  OD2       13.0950    6.9150   -1.6760 O.co2 170  ASP170     -0.2456
    161  N          6.6770    8.9570   13.5460 N.3   313  PHE313     -0.1241
    162  CA         7.8250    9.4260   12.7830 C.3   313  PHE313      0.1605
    163  C          8.8410   10.0630   13.6990 C.2   313  PHE313      0.2264
    164  O          8.4570   10.6810   14.6920 O.2   313  PHE313     -0.2867
    165  CB         7.3460   10.4700   11.7950 C.3   313  PHE313      0.0534
    166  CG         6.3830    9.9340   10.7820 C.ar  313  PHE313     -0.0203
    167  CD1        6.8480    9.3050    9.6330 C.ar  313  PHE313     -0.0042
    168  CD2        5.0080   10.0620   10.9790 C.ar  313  PHE313     -0.0042
    169  CE1        5.9710    8.8160    8.6960 C.ar  313  PHE313     -0.0003
    170  CE2        4.1020    9.5700   10.0400 C.ar  313  PHE313     -0.0003
    171  CZ         4.5810    8.9480    8.8960 C.ar  313  PHE313     -0.0000
    172  N         13.0270   15.6300   13.2060 N.3   316  TYR316     -0.1241
    173  CA        14.0350   16.1530   12.3080 C.3   316  TYR316      0.1605
    174  C         14.1340   17.6600   12.5560 C.2   316  TYR316      0.2264
    175  O         13.1340   18.2800   12.9190 O.2   316  TYR316     -0.2867
    176  CB        13.6050   15.8940   10.8500 C.3   316  TYR316      0.0534
    177  CG        13.5930   14.4430   10.4560 C.ar  316  TYR316     -0.0201
    178  CD1       14.7700   13.7860   10.1710 C.ar  316  TYR316     -0.0009
    179  CD2       12.4200   13.7220   10.4180 C.ar  316  TYR316     -0.0009
    180  CE1       14.7870   12.4500    9.8720 C.ar  316  TYR316      0.0417
    181  CE2       12.4280   12.3740   10.1040 C.ar  316  TYR316      0.0417
    182  CZ        13.6240   11.7440    9.8380 C.ar  316  TYR316      0.1957
    183  OH        13.6740   10.3810    9.5680 O.3   316  TYR316     -0.2866
@<TRIPOS>BOND
     1    63    62    2
     2   156   155    2
     3   155   154    1
     4    62    61    1
     5   159   158   ar
     6    59    58    1
     7   154   153    1
     8   154   157    1
     9    72    73    1
    10    72    71    1
    11    60    61    1
    12    58    57    1
    13    57    56    1
    14    54    53    2
    15    73    74    1
    16   149   148    2
    17   153   148   am
    18   158   157    1
    19   158   160   ar
    20    61    64    1
    21   148   147    1
    22    56    55    1
    23    66    64    1
    24    55    52    1
    25    67    68    1
    26    68    71    1
    27    68    69    1
    28    53    52    1
    29    64    65    1
    30   147   146    1
    31   147   150    1
    32    52    51    1
    33   137   135   am
    34    69    75   am
    35    69    70    2
    36    75    76    1
    37    24    25    1
    38   150   152    1
    39   150   151    1
    40    25    26    1
    41   135   134    1
    42   135   136    2
    43    82    81   ar
    44    79    76    1
    45    79    80    1
    46    49    48    2
    47   134   131    1
    48   112   113    1
    49    76    77    1
    50    81    83   ar
    51    81    80    1
    52   120   119    1
    53   133   132    2
    54   119   118    1
    55    26    28   am
    56    26    27    2
    57    22    23    2
    58    22    21    1
    59    48    47    1
    60   118   117    1
    61   117   116    1
    62    28    29    1
    63   113   116    1
    64   113   114    1
    65    31    30    2
    66   131   132    1
    67   131   130    1
    68    77    78    2
    69    77    84   am
    70    45    43    1
    71    21    20    1
    72   115   114    2
    73    46    47    1
    74    30    29    1
    75    30    39   am
    76    47    50    1
    77   130   123   am
    78    44    43    1
    79    29    32    1
    80    40    43    1
    81    40    39    1
    82    40    41    1
    83    84    85    1
    84    20    15   am
    85   102   100    1
    86   144   143    1
    87    16    15    2
    88    15    14    1
    89    33    32    1
    90    33    34    1
    91   123   124    2
    92   123   122    1
    93   138   139    1
    94    41    42    2
    95    85    86    1
    96    85    88    1
    97   143   142    1
    98   143   145    1
    99   141   140    2
   100    34    35    1
   101   142   139    1
   102   125   122    1
   103   125   126    1
   104   100   101    1
   105   100    97    1
   106   121   122    1
   107    86    96   am
   108    86    87    2
   109    96    97    1
   110    14    13    1
   111    14    17    1
   112   139   140    1
   113   128   127   ar
   114    88    89    1
   115    12    11    2
   116   127   129   ar
   117   127   126    1
   118    97    98    1
   119    13    11   am
   120    18    17    1
   121    11    10    1
   122    35    36    2
   123    37    36    1
   124    17    19    1
   125    10     9    1
   126    89    90   ar
   127    89    91   ar
   128    36    38    1
   129    90    92   ar
   130     7     6    1
   131     9     3   am
   132    98    99    2
   133   111   109   ar
   134   108   109    1
   135   108   107    1
   136   109   110   ar
   137     5     6    1
   138     5     2    1
   139    91    93   ar
   140     3     4    2
   141     3     2    1
   142     6     8    1
   143     1     2    1
   144    92    94   ar
   145   107   104    1
   146   104   105    1
   147   104   103    1
   148   169   171   ar
   149   169   167   ar
   150   171   170   ar
   151   105   106    2
   152    93    94   ar
   153    94    95    1
   154   183   182    1
   155   167   166   ar
   156   182   180   ar
   157   182   181   ar
   158   180   178   ar
   159   170   168   ar
   160   181   179   ar
   161   178   177   ar
   162   179   177   ar
   163   177   176    1
   164   166   168   ar
   165   166   165    1
   166   176   173    1
   167   165   162    1
   168   173   174    1
   169   173   172    1
   170   174   175    2
   171   162   161    1
   172   162   163    1
   173   163   164    2
