@<TRIPOS>MOLECULE
tmp/2v00A00.pdb
 130 120 0 0 0
SMALL
GASTEIGER

@<TRIPOS>ATOM
      1  N         -5.0900   -3.1460    1.0740 N.3    15  ASP15      -0.1225
      2  CA        -5.3690   -2.0450    2.0090 C.3    15  ASP15       0.1805
      3  C         -4.2810   -1.9020    3.0710 C.2    15  ASP15       0.2597
      4  O         -4.0790   -0.8190    3.6250 O.2    15  ASP15      -0.2718
      5  CB        -6.7430   -2.2080    2.6490 C.3    15  ASP15       0.1424
      6  CG        -7.8680   -1.7320    1.7370 C.2    15  ASP15       0.3668
      7  OD1       -7.6770   -0.6830    1.0970 O.co2  15  ASP15      -0.2456
      8  OD2       -8.9320   -2.4030    1.6830 O.co2  15  ASP15      -0.2456
      9  N         -3.5600   -2.9960    3.3250 N.am   16  ALA16      -0.1979
     10  CA        -2.4620   -3.0380    4.3020 C.3    16  ALA16       0.1597
     11  C         -1.7970   -4.4030    4.1190 C.2    16  ALA16       0.2287
     12  O         -2.3090   -5.2540    3.3880 O.2    16  ALA16      -0.2864
     13  CB        -2.9540   -2.8430    5.7490 C.3    16  ALA16       0.0319
     14  N          1.4330   -5.4050   11.2980 N.3    33  ASP33      -0.1239
     15  CA         1.5530   -4.4560   10.2140 C.3    33  ASP33       0.1674
     16  C          2.8930   -3.7190   10.3550 C.2    33  ASP33       0.2266
     17  O          3.0400   -2.8840   11.2520 O.2    33  ASP33      -0.2867
     18  CB         0.3840   -3.4720   10.3250 C.3    33  ASP33       0.1410
     19  CG         0.3120   -2.4840    9.1650 C.2    33  ASP33       0.3668
     20  OD1        1.2850   -2.3360    8.3830 O.co2  33  ASP33      -0.2456
     21  OD2       -0.7550   -1.8180    9.0690 O.co2  33  ASP33      -0.2456
     22  N          5.3760   -1.0640    9.8740 N.3    35  ASP35      -0.1239
     23  CA         5.0250    0.3270    9.6140 C.3    35  ASP35       0.1674
     24  C          6.2530    1.2430    9.6660 C.2    35  ASP35       0.2266
     25  O          6.6840    1.6310   10.7520 O.2    35  ASP35      -0.2867
     26  CB         3.9690    0.7710   10.6330 C.3    35  ASP35       0.1410
     27  CG         3.4620    2.1820   10.3950 C.2    35  ASP35       0.3668
     28  OD1        3.8650    2.7910    9.3880 O.co2  35  ASP35      -0.2456
     29  OD2        2.6400    2.6350   11.2290 O.co2  35  ASP35      -0.2456
     30  N          6.3260    4.1850    9.0700 N.3    37  GLY37      -0.1225
     31  CA         5.8760    5.5160    9.4830 C.3    37  GLY37       0.1811
     32  C          5.5550    5.6610   10.9680 C.2    37  GLY37       0.2280
     33  O          4.9630    6.6640   11.3880 O.2    37  GLY37      -0.2866
     34  N         -2.5490    7.7180   15.3440 N.3    79  TYR79      -0.1227
     35  CA        -2.0030    7.6870   13.9970 C.3    79  TYR79       0.1736
     36  C         -2.5290    8.8180   13.1180 C.2    79  TYR79       0.2596
     37  O         -3.4940    9.4980   13.4760 O.2    79  TYR79      -0.2718
     38  CB        -2.2220    6.3080   13.3680 C.3    79  TYR79       0.0548
     39  CG        -1.4810    5.2100   14.1120 C.ar   79  TYR79      -0.0200
     40  CD1       -0.1060    5.0160   13.9190 C.ar   79  TYR79      -0.0009
     41  CD2       -2.1430    4.3700   15.0070 C.ar   79  TYR79      -0.0009
     42  CE1        0.5830    4.0110   14.6040 C.ar   79  TYR79       0.0417
     43  CE2       -1.4620    3.3660   15.7000 C.ar   79  TYR79       0.0417
     44  CZ        -0.0860    3.1930   15.4790 C.ar   79  TYR79       0.1957
     45  OH         0.6060    2.1880   16.1350 O.3    79  TYR79      -0.2866
     46  N         -1.8860    9.0010   11.9690 N.am   80  GLY80      -0.1942
     47  CA        -2.2650   10.0300   10.9990 C.3    80  GLY80       0.2014
     48  C         -3.7170    9.9490   10.5570 C.2    80  GLY80       0.2638
     49  O         -4.3270   10.9660   10.2190 O.2    80  GLY80      -0.2714
     50  N         -4.2720    8.7410   10.5600 N.am   81  ASP81      -0.1971
     51  CA        -5.6400    8.5160   10.1040 C.3    81  ASP81       0.1709
     52  C         -6.6990    8.6420   11.2180 C.2    81  ASP81       0.2293
     53  O         -7.8850    8.4160   10.9800 O.2    81  ASP81      -0.2864
     54  CB        -5.7650    7.1720    9.3790 C.3    81  ASP81       0.1436
     55  CG        -5.7080    5.9770   10.3240 C.2    81  ASP81       0.3671
     56  OD1       -5.2680    6.1400   11.4880 O.co2  81  ASP81      -0.2456
     57  OD2       -6.1020    4.8680    9.8940 O.co2  81  ASP81      -0.2456
     58  N         -6.8320    6.8360   14.0400 N.3    83  SER83      -0.1217
     59  CA        -6.9270    5.6440   14.8860 C.3    83  SER83       0.1889
     60  C         -5.9520    5.7670   16.0600 C.2    83  SER83       0.2288
     61  O         -5.0270    6.5810   16.0310 O.2    83  SER83      -0.2866
     62  CB        -6.6490    4.3660   14.0830 C.3    83  SER83       0.2089
     63  OG        -5.3120    4.3510   13.6180 O.3    83  SER83      -0.2183
     64  N        -11.5150    1.2060   14.6530 N.3   115  SER115     -0.1202
     65  CA       -11.0060    0.7180   13.3720 C.3   115  SER115      0.2020
     66  C        -10.1230   -0.5200   13.5560 C.2   115  SER115      0.2618
     67  O        -10.1380   -1.4200   12.7210 O.2   115  SER115     -0.2717
     68  CB       -10.2460    1.8100   12.6270 C.3   115  SER115      0.2103
     69  OG        -9.0390    2.1210   13.2990 O.3   115  SER115     -0.2182
     70  N         -9.3680   -0.5590   14.6580 N.am  116  PHE116     -0.1975
     71  CA        -8.5860   -1.7550   14.9580 C.3   116  PHE116      0.1639
     72  C         -9.4910   -2.9410   15.2970 C.2   116  PHE116      0.2290
     73  O         -9.3160   -4.0160   14.7420 O.2   116  PHE116     -0.2864
     74  CB        -7.5670   -1.4980   16.0690 C.3   116  PHE116      0.0560
     75  CG        -6.4760   -0.5530   15.6660 C.ar  116  PHE116     -0.0200
     76  CD1       -5.5500   -0.9230   14.6760 C.ar  116  PHE116     -0.0042
     77  CD2       -6.3640    0.7070   16.2380 C.ar  116  PHE116     -0.0042
     78  CE1       -4.5330   -0.0500   14.2760 C.ar  116  PHE116     -0.0003
     79  CE2       -5.3560    1.5760   15.8570 C.ar  116  PHE116     -0.0003
     80  CZ        -4.4280    1.2000   14.8570 C.ar  116  PHE116     -0.0000
     81  N        -11.0880   -4.5720   12.2380 N.3   119  ASP119     -0.1239
     82  CA       -10.2170   -5.2790   11.3000 C.3   119  ASP119      0.1674
     83  C         -9.5870   -6.4920   12.0000 C.2   119  ASP119      0.2266
     84  O         -8.5930   -6.3510   12.7220 O.2   119  ASP119     -0.2867
     85  CB        -9.1210   -4.3410   10.8150 C.3   119  ASP119      0.1410
     86  CG        -8.1350   -5.0240    9.8770 C.2   119  ASP119      0.3668
     87  OD1       -8.4060   -6.1870    9.4340 O.co2 119  ASP119     -0.2456
     88  OD2       -7.0830   -4.3950    9.5910 O.co2 119  ASP119     -0.2456
     89  N         -5.3730   -7.7180   11.4480 N.3   122  ILE122     -0.1245
     90  CA        -4.1840   -7.0650   11.9610 C.3   122  ILE122      0.1561
     91  C         -4.1390   -7.2190   13.4710 C.2   122  ILE122      0.2260
     92  O         -5.0200   -6.7150   14.1780 O.2   122  ILE122     -0.2867
     93  CB        -4.1450   -5.5810   11.5230 C.3   122  ILE122      0.0252
     94  CG1       -3.8640   -5.4990   10.0160 C.3   122  ILE122      0.0019
     95  CG2       -3.0420   -4.8180   12.2270 C.3   122  ILE122      0.0019
     96  CD1       -3.8050   -4.0960    9.4390 C.3   122  ILE122      0.0001
     97  N          0.9420   -3.6720   15.4080 N.3   125  LEU125     -0.1245
     98  CA         1.8630   -2.9220   14.5630 C.3   125  LEU125      0.1561
     99  C          3.2950   -3.2090   14.9700 C.2   125  LEU125      0.2260
    100  O          3.5730   -3.4220   16.1710 O.2   125  LEU125     -0.2867
    101  CB         1.6160   -1.4130   14.7140 C.3   125  LEU125      0.0270
    102  CG         0.4970   -0.7420   13.9000 C.3   125  LEU125      0.0019
    103  CD1       -0.8150   -1.5430   13.8290 C.3   125  LEU125      0.0001
    104  CD2        0.9790   -0.4860   12.5230 C.3   125  LEU125      0.0001
    105  N          6.5370    5.3130    3.6150 N.3   219  ASP219     -0.1239
    106  CA         5.7120    4.8670    4.7420 C.3   219  ASP219      0.1674
    107  C          4.9240    3.6090    4.3740 C.2   219  ASP219      0.2266
    108  O          3.8540    3.6960    3.7710 O.2   219  ASP219     -0.2867
    109  CB         4.7630    5.9900    5.1990 C.3   219  ASP219      0.1410
    110  CG         3.9080    5.6030    6.4090 C.2   219  ASP219      0.3668
    111  OD1        4.0540    4.4630    6.9440 O.co2 219  ASP219     -0.2456
    112  OD2        3.0920    6.4680    6.8150 O.co2 219  ASP219     -0.2456
    113  N          3.2160    1.8440    6.2070 N.3   221  GLY221     -0.1210
    114  CA         1.9870    1.8380    7.0040 C.3   221  GLY221      0.1956
    115  C          0.8660    2.7210    6.5030 C.2   221  GLY221      0.2613
    116  O         -0.2060    2.7700    7.1300 O.2   221  GLY221     -0.2717
    117  N          1.1040    3.4280    5.3910 N.am  222  THR222     -0.1938
    118  CA         0.0380    4.2050    4.7550 C.3   222  THR222      0.2028
    119  C         -0.2770    3.5040    3.4320 C.2   222  THR222      0.2642
    120  O          0.6170    3.1220    2.6830 O.2   222  THR222     -0.2714
    121  CB         0.4670    5.6840    4.5130 C.3   222  THR222      0.1808
    122  OG1        0.6260    6.3550    5.7680 O.3   222  THR222     -0.2208
    123  CG2       -0.5860    6.4590    3.7040 C.3   222  THR222      0.0379
    124  N         -1.5680    3.3500    3.1470 N.am  223  THR223     -0.1950
    125  CA        -1.9920    2.5890    1.9880 C.3   223  THR223      0.1897
    126  C         -1.7480    3.3130    0.6700 C.2   223  THR223      0.2313
    127  O         -1.2550    2.7220   -0.2990 O.2   223  THR223     -0.2863
    128  CB        -3.4890    2.2360    2.1000 C.3   223  THR223      0.1794
    129  OG1       -3.7410    1.6760    3.4000 O.3   223  THR223     -0.2208
    130  CG2       -3.8910    1.2350    0.9880 C.3   223  THR223      0.0378
@<TRIPOS>BOND
     1   127   126    2
     2   126   125    1
     3   130   128    1
     4     1     2    1
     5     7     6   ar
     6     8     6   ar
     7     6     5    1
     8   125   128    1
     9   125   124    1
    10     2     5    1
    11     2     3    1
    12   128   129    1
    13   120   119    2
    14     3     9   am
    15     3     4    2
    16   124   119   am
    17     9    10    1
    18    12    11    2
    19   119   118    1
    20   105   106    1
    21   123   121    1
    22   108   107    2
    23    11    10    1
    24    10    13    1
    25   107   106    1
    26   121   118    1
    27   121   122    1
    28   106   109    1
    29   118   117    1
    30   109   110    1
    31   117   115   am
    32   113   114    1
    33   110   112   ar
    34   110   111   ar
    35   115   114    1
    36   115   116    2
    37    20    19   ar
    38    21    19   ar
    39    30    31    1
    40    19    18    1
    41    54    51    1
    42    54    55    1
    43    28    27   ar
    44    87    86   ar
    45    96    94    1
    46    31    32    1
    47    88    86   ar
    48    23    24    1
    49    23    22    1
    50    23    26    1
    51    24    25    2
    52    86    85    1
    53    57    55   ar
    54    94    93    1
    55    51    50    1
    56    51    52    1
    57    15    18    1
    58    15    16    1
    59    15    14    1
    60    49    48    2
    61    55    56   ar
    62    16    17    2
    63    27    26    1
    64    27    29   ar
    65    48    50   am
    66    48    47    1
    67    85    82    1
    68    32    33    2
    69    53    52    2
    70    47    46    1
    71    82    83    1
    72    82    81    1
    73    89    90    1
    74    93    90    1
    75    93    95    1
    76    90    91    1
    77    46    36   am
    78    83    84    2
    79   104   102    1
    80    68    69    1
    81    68    65    1
    82    67    66    2
    83    36    37    2
    84    36    35    1
    85    38    35    1
    86    38    39    1
    87    65    66    1
    88    65    64    1
    89    91    92    2
    90    66    70   am
    91    63    62    1
    92   103   102    1
    93   102   101    1
    94    40    39   ar
    95    40    42   ar
    96    35    34    1
    97    58    59    1
    98    62    59    1
    99    39    41   ar
   100    78    76   ar
   101    78    80   ar
   102    98   101    1
   103    98    99    1
   104    98    97    1
   105    42    44   ar
   106    70    71    1
   107    76    75   ar
   108    73    72    2
   109    80    79   ar
   110    59    60    1
   111    71    72    1
   112    71    74    1
   113    99   100    2
   114    41    43   ar
   115    44    43   ar
   116    44    45    1
   117    75    74    1
   118    75    77   ar
   119    79    77   ar
   120    61    60    2
