@<TRIPOS>MOLECULE
tmp/2v03A01.pdb
 103 98 0 0 0
SMALL
GASTEIGER

@<TRIPOS>ATOM
      1  N         30.9030   13.4070   12.9550 N.3    41  LYS41      -0.1245
      2  CA        30.4900   13.0310   11.6020 C.3    41  LYS41       0.1561
      3  C         31.5120   13.3590   10.5810 C.2    41  LYS41       0.2260
      4  O         31.4840   12.8760    9.4270 O.2    41  LYS41      -0.2867
      5  CB        29.2050   13.7100   11.2550 C.3    41  LYS41       0.0271
      6  CG        28.0680   13.1220   12.0880 C.3    41  LYS41       0.0035
      7  CD        27.8040   11.6470   11.8780 C.3    41  LYS41       0.0206
      8  CE        26.4500   11.1910   12.3900 C.3    41  LYS41       0.1093
      9  NZ        26.2740   11.7960   13.7470 N.3    41  LYS41      -0.1314
     10  N         19.7050   14.1130    5.7170 N.3    68  THR68      -0.1203
     11  CA        20.2700   14.3890    7.0240 C.3    68  THR68       0.1994
     12  C         19.2880   15.0270    7.9780 C.2    68  THR68       0.2619
     13  O         18.3910   15.8040    7.5670 O.2    68  THR68      -0.2717
     14  CB        21.5410   15.2360    6.8860 C.3    68  THR68       0.1784
     15  OG1       22.1650   15.4170    8.1670 O.3    68  THR68      -0.2211
     16  CG2       21.2060   16.6350    6.2840 C.3    68  THR68       0.0376
     17  N         19.4160   14.6740    9.2570 N.am   69  SER69      -0.1937
     18  CA        18.6170   15.2630   10.3180 C.3    69  SER69       0.2055
     19  C         19.4920   15.9130   11.3950 C.2    69  SER69       0.2644
     20  O         18.9630   16.3320   12.4440 O.2    69  SER69      -0.2714
     21  CB        17.6880   14.2180   10.9430 C.3    69  SER69       0.2130
     22  OG        18.3600   12.9860   11.2010 O.3    69  SER69      -0.2179
     23  N         20.7860   16.0360   11.1640 N.am   70  GLY70      -0.1939
     24  CA        21.7070   16.5370   12.2070 C.3    70  GLY70       0.2014
     25  C         23.0900   16.8770   11.6730 C.2    70  GLY70       0.2639
     26  O         23.2560   17.4070   10.6040 O.2    70  GLY70      -0.2714
     27  N         24.1380   16.5270   12.4450 N.am   71  ASN71      -0.1958
     28  CA        25.5170   16.8730   12.1420 C.3    71  ASN71       0.1819
     29  C         26.0660   16.3460   10.8100 C.2    71  ASN71       0.2621
     30  O         26.9510   16.9270   10.2440 O.2    71  ASN71      -0.2715
     31  CB        26.4520   16.3690   13.2480 C.3    71  ASN71       0.1195
     32  CG        26.3620   17.1850   14.5210 C.2    71  ASN71       0.2630
     33  OD1       26.1150   18.4340   14.4410 O.2    71  ASN71      -0.2716
     34  ND2       26.6170   16.5710   15.6540 N.am   71  ASN71      -0.0877
     35  N         25.4910   15.2690   10.2640 N.am   72  THR72      -0.1951
     36  CA        26.0540   14.6830    9.0250 C.3    72  THR72       0.1897
     37  C         26.0300   15.7240    7.9020 C.2    72  THR72       0.2313
     38  O         26.9680   15.8300    7.1030 O.2    72  THR72      -0.2863
     39  CB        25.3320   13.4300    8.6170 C.3    72  THR72       0.1794
     40  OG1       25.4280   12.4970    9.6770 O.3    72  THR72      -0.2208
     41  CG2       25.9150   12.8280    7.3810 C.3    72  THR72       0.0378
     42  N         12.7450   11.4420    7.6270 N.3   119  MET119     -0.1245
     43  CA        13.9820   10.9210    7.0530 C.3   119  MET119      0.1570
     44  C         13.7370    9.8940    5.9830 C.2   119  MET119      0.2261
     45  O         14.4920    9.8180    5.0110 O.2   119  MET119     -0.2867
     46  CB        14.8850   10.3590    8.1540 C.3   119  MET119      0.0387
     47  CG        15.6680   11.4550    8.8780 C.3   119  MET119      0.0595
     48  SD        16.7790   12.3180    7.7630 S.3   119  MET119     -0.1393
     49  CE        17.9940   11.0040    7.6350 C.3   119  MET119      0.0692
     50  N         24.2660    7.4160    4.5200 N.3   140  GLN140     -0.1231
     51  CA        25.0280    7.1990    5.7710 C.3   140  GLN140      0.1698
     52  C         24.5540    6.0260    6.6130 C.2   140  GLN140      0.2592
     53  O         25.3860    5.4110    7.3180 O.2   140  GLN140     -0.2718
     54  CB        24.9990    8.4420    6.6310 C.3   140  GLN140      0.0381
     55  CG        23.5940    8.8380    7.0590 C.3   140  GLN140      0.0905
     56  CD        23.5430   10.0700    7.9390 C.2   140  GLN140      0.2608
     57  OE1       24.3290   10.1940    8.8750 O.2   140  GLN140     -0.2717
     58  NE2       22.5930   10.9590    7.6940 N.am  140  GLN140     -0.0878
     59  N         23.2710    5.6890    6.6220 N.am  141  PHE141     -0.1976
     60  CA        22.8020    4.5800    7.4580 C.3   141  PHE141      0.1639
     61  C         23.1120    3.1950    6.8910 C.2   141  PHE141      0.2290
     62  O         23.0390    2.1900    7.6160 O.2   141  PHE141     -0.2864
     63  CB        21.2930    4.7200    7.7130 C.3   141  PHE141      0.0560
     64  CG        20.9470    5.8050    8.6430 C.ar  141  PHE141     -0.0200
     65  CD1       20.9560    5.6090   10.0330 C.ar  141  PHE141     -0.0042
     66  CD2       20.6370    7.0570    8.1500 C.ar  141  PHE141     -0.0042
     67  CE1       20.6340    6.6620   10.8710 C.ar  141  PHE141     -0.0003
     68  CE2       20.3120    8.0910    9.0040 C.ar  141  PHE141     -0.0003
     69  CZ        20.3310    7.8940   10.3390 C.ar  141  PHE141     -0.0000
     70  N         23.6300    6.4380   17.0180 N.3   174  GLY174     -0.1210
     71  CA        22.7930    7.1220   16.0650 C.3   174  GLY174      0.1956
     72  C         22.7280    6.3060   14.7910 C.2   174  GLY174      0.2612
     73  O         21.8640    5.4300   14.6470 O.2   174  GLY174     -0.2717
     74  N         23.6120    6.5720   13.8320 N.am  175  THR175     -0.1952
     75  CA        23.7980    5.6430   12.7030 C.3   175  THR175      0.1897
     76  C         24.3070    4.2810   13.1090 C.2   175  THR175      0.2313
     77  O         24.1050    3.3620   12.3540 O.2   175  THR175     -0.2863
     78  CB        24.7130    6.1900   11.5800 C.3   175  THR175      0.1794
     79  OG1       26.0870    6.1960   11.9980 O.3   175  THR175     -0.2208
     80  CG2       24.2690    7.6110   11.1190 C.3   175  THR175      0.0378
     81  N         20.7750   13.4010   18.2070 N.3   208  GLY208     -0.1210
     82  CA        21.8490   12.5330   17.7380 C.3   208  GLY208      0.1956
     83  C         21.7850   11.0840   18.1960 C.2   208  GLY208      0.2612
     84  O         22.5630   10.2630   17.6770 O.2   208  GLY208     -0.2717
     85  N         20.9170   10.7240   19.1470 N.am  209  ILE209     -0.1965
     86  CA        20.8520    9.3300   19.6750 C.3   209  ILE209      0.1727
     87  C         19.4800    8.8020   19.2150 C.2   209  ILE209      0.2616
     88  O         18.4900    9.5320   19.1890 O.2   209  ILE209     -0.2715
     89  CB        20.9230    9.2090   21.2780 C.3   209  ILE209      0.0290
     90  CG1       21.9740   10.1140   21.8920 C.3   209  ILE209      0.0022
     91  CG2       21.1780    7.7210   21.7160 C.3   209  ILE209      0.0023
     92  CD1       22.2570    9.8460   23.4100 C.3   209  ILE209      0.0001
     93  N         19.4420    7.5530   18.8140 N.am  210  ARG210     -0.1977
     94  CA        18.1860    6.9270   18.4320 C.3   210  ARG210      0.1597
     95  C         17.8950    5.7240   19.2570 C.2   210  ARG210      0.2287
     96  O         18.8160    5.0250   19.6880 O.2   210  ARG210     -0.2864
     97  CB        18.2680    6.5510   16.9720 C.3   210  ARG210      0.0334
     98  CG        18.3610    7.7980   16.1420 C.3   210  ARG210      0.0492
     99  CD        18.4770    7.5020   14.7190 C.3   210  ARG210      0.2205
    100  NE        18.3690    8.7250   13.9190 N.pl3 210  ARG210     -0.0865
    101  CZ        17.4460    8.9300   12.9800 C.cat 210  ARG210      0.5346
    102  NH1       16.5120    8.0200   12.7330 N.pl3 210  ARG210      0.1354
    103  NH2       17.4620   10.0630   12.2760 N.pl3 210  ARG210      0.1354
@<TRIPOS>BOND
     1    50    51    1
     2    45    44    2
     3    10    11    1
     4    51    52    1
     5    51    54    1
     6    44    43    1
     7    16    14    1
     8    52    59   am
     9    52    53    2
    10    59    60    1
    11    54    55    1
    12    14    11    1
    13    14    15    1
    14    61    60    1
    15    61    62    2
    16    11    12    1
    17    43    42    1
    18    43    46    1
    19    55    56    1
    20    38    37    2
    21    41    39    1
    22    60    63    1
    23    13    12    2
    24    49    48    1
    25    58    56   am
    26    63    64    1
    27    48    47    1
    28    37    36    1
    29    56    57    2
    30    12    17   am
    31    66    64   ar
    32    66    68   ar
    33    46    47    1
    34    39    36    1
    35    39    40    1
    36    64    65   ar
    37    68    69   ar
    38    36    35    1
    39    17    18    1
    40     4     3    2
    41    65    67   ar
    42    30    29    2
    43    35    29   am
    44    18    21    1
    45    18    19    1
    46    69    67   ar
    47     3     2    1
    48    26    25    2
    49    29    28    1
    50    21    22    1
    51    80    78    1
    52    23    19   am
    53    23    24    1
    54     5     2    1
    55     5     6    1
    56    19    20    2
    57    78    79    1
    58    78    75    1
    59     2     1    1
    60    25    24    1
    61    25    27   am
    62     7     6    1
    63     7     8    1
    64    28    27    1
    65    28    31    1
    66   103   101    1
    67    77    76    2
    68     8     9    1
    69    75    76    1
    70    75    74    1
    71   102   101    1
    72   101   100    2
    73    31    32    1
    74    74    72   am
    75   100    99    1
    76    33    32    2
    77    32    34   am
    78    73    72    2
    79    99    98    1
    80    72    71    1
    81    71    70    1
    82    98    97    1
    83    97    94    1
    84    84    83    2
    85    82    83    1
    86    82    81    1
    87    83    85   am
    88    94    93    1
    89    94    95    1
    90    93    87   am
    91    85    86    1
    92    88    87    2
    93    87    86    1
    94    95    96    2
    95    86    89    1
    96    89    91    1
    97    89    90    1
    98    90    92    1
