@<TRIPOS>MOLECULE
tmp/2v0cA02.pdb
 156 152 0 0 0
SMALL
GASTEIGER

@<TRIPOS>ATOM
      1  N         54.1030  -23.5660   35.0550 N.3   243  PHE243     -0.1227
      2  CA        53.1490  -24.5820   34.6720 C.3   243  PHE243      0.1736
      3  C         53.4460  -25.0180   33.2370 C.2   243  PHE243      0.2596
      4  O         53.6570  -24.1830   32.3960 O.2   243  PHE243     -0.2718
      5  CB        51.7110  -24.0870   34.7930 C.3   243  PHE243      0.0547
      6  CG        50.7560  -25.0000   34.1580 C.ar  243  PHE243     -0.0202
      7  CD1       50.6040  -26.2850   34.6440 C.ar  243  PHE243     -0.0042
      8  CD2       50.0850  -24.6180   32.9770 C.ar  243  PHE243     -0.0042
      9  CE1       49.7570  -27.1860   34.0050 C.ar  243  PHE243     -0.0003
     10  CE2       49.2350  -25.5180   32.3470 C.ar  243  PHE243     -0.0003
     11  CZ        49.0830  -26.7880   32.8570 C.ar  243  PHE243     -0.0000
     12  N         53.4890  -26.3190   33.0040 N.am  244  THR244     -0.1939
     13  CA        53.7800  -26.8560   31.6680 C.3   244  THR244      0.2028
     14  C         52.8950  -28.0440   31.3360 C.2   244  THR244      0.2643
     15  O         52.6890  -28.9210   32.1590 O.2   244  THR244     -0.2714
     16  CB        55.2590  -27.3340   31.5200 C.3   244  THR244      0.1808
     17  OG1       55.4760  -27.7250   30.1540 O.3   244  THR244     -0.2208
     18  CG2       55.5780  -28.5330   32.4360 C.3   244  THR244      0.0379
     19  N         52.3910  -28.0920   30.1010 N.am  245  THR245     -0.1936
     20  CA        51.7460  -29.3170   29.6000 C.3   245  THR245      0.2028
     21  C         52.7470  -30.2230   28.8640 C.2   245  THR245      0.2642
     22  O         52.3960  -31.3470   28.4280 O.2   245  THR245     -0.2714
     23  CB        50.5370  -28.9950   28.6790 C.3   245  THR245      0.1808
     24  OG1       50.9670  -28.0870   27.6630 O.3   245  THR245     -0.2208
     25  CG2       49.3960  -28.3700   29.5040 C.3   245  THR245      0.0379
     26  N         54.0170  -29.8020   28.7960 N.am  246  ARG246     -0.1977
     27  CA        55.0660  -30.6470   28.2050 C.3   246  ARG246      0.1597
     28  C         56.2690  -30.8890   29.1380 C.2   246  ARG246      0.2287
     29  O         57.4080  -30.4480   28.8520 O.2   246  ARG246     -0.2864
     30  CB        55.5350  -30.0020   26.8900 C.3   246  ARG246      0.0334
     31  CG        54.4650  -29.9300   25.8060 C.3   246  ARG246      0.0492
     32  CD        54.0300  -31.3070   25.3180 C.3   246  ARG246      0.2205
     33  NE        55.1550  -32.1110   24.8600 N.pl3 246  ARG246     -0.0865
     34  CZ        55.6940  -32.0560   23.6320 C.cat 246  ARG246      0.5346
     35  NH1       55.2200  -31.2340   22.7010 N.pl3 246  ARG246      0.1354
     36  NH2       56.7320  -32.8140   23.3500 N.pl3 246  ARG246      0.1354
     37  N         54.0030  -11.9040   25.7590 N.3   324  TYR324     -0.1227
     38  CA        53.2760  -13.0640   25.2800 C.3   324  TYR324      0.1736
     39  C         52.8950  -14.0190   26.4010 C.2   324  TYR324      0.2595
     40  O         52.0580  -14.8970   26.2180 O.2   324  TYR324     -0.2718
     41  CB        54.0310  -13.7680   24.1530 C.3   324  TYR324      0.0548
     42  CG        55.2060  -14.6960   24.4460 C.ar  324  TYR324     -0.0200
     43  CD1       55.0400  -16.0860   24.4760 C.ar  324  TYR324     -0.0009
     44  CD2       56.4960  -14.2030   24.5430 C.ar  324  TYR324     -0.0009
     45  CE1       56.1250  -16.9450   24.6760 C.ar  324  TYR324      0.0417
     46  CE2       57.5840  -15.0530   24.7360 C.ar  324  TYR324      0.0417
     47  CZ        57.4010  -16.4110   24.7990 C.ar  324  TYR324      0.1957
     48  OH        58.4870  -17.2400   24.9730 O.3   324  TYR324     -0.2866
     49  N         53.5100  -13.8220   27.5600 N.am  325  VAL325     -0.1966
     50  CA        53.1570  -14.5650   28.7600 C.3   325  VAL325      0.1727
     51  C         52.1650  -13.7250   29.5470 C.2   325  VAL325      0.2616
     52  O         52.4040  -12.5560   29.8730 O.2   325  VAL325     -0.2715
     53  CB        54.4240  -14.9690   29.5830 C.3   325  VAL325      0.0290
     54  CG1       54.0320  -15.7960   30.8450 C.3   325  VAL325      0.0023
     55  CG2       55.3700  -15.7650   28.6940 C.3   325  VAL325      0.0023
     56  N         51.0220  -14.3370   29.8050 N.am  326  LEU326     -0.1977
     57  CA        49.9100  -13.6990   30.4520 C.3   326  LEU326      0.1596
     58  C         49.9340  -14.0590   31.9360 C.2   326  LEU326      0.2287
     59  O         50.1710  -15.1930   32.2920 O.2   326  LEU326     -0.2864
     60  CB        48.5960  -14.1740   29.8100 C.3   326  LEU326      0.0297
     61  CG        48.4490  -13.9720   28.2800 C.3   326  LEU326      0.0022
     62  CD1       47.1020  -14.5450   27.8150 C.3   326  LEU326      0.0001
     63  CD2       48.6130  -12.5180   27.8670 C.3   326  LEU326      0.0001
     64  N         47.1260  -16.9690   33.6490 N.3   329  TYR329     -0.1227
     65  CA        47.0920  -18.3680   33.2770 C.3   329  TYR329      0.1736
     66  C         48.2780  -19.1090   33.8890 C.2   329  TYR329      0.2596
     67  O         49.3900  -18.5680   33.9510 O.2   329  TYR329     -0.2718
     68  CB        47.1100  -18.5070   31.7540 C.3   329  TYR329      0.0548
     69  CG        45.8420  -18.0220   31.0760 C.ar  329  TYR329     -0.0200
     70  CD1       44.6570  -18.7490   31.2100 C.ar  329  TYR329     -0.0009
     71  CD2       45.7870  -16.8510   30.3380 C.ar  329  TYR329     -0.0009
     72  CE1       43.4750  -18.2950   30.6240 C.ar  329  TYR329      0.0417
     73  CE2       44.6370  -16.3990   29.7210 C.ar  329  TYR329      0.0417
     74  CZ        43.4590  -17.1260   29.8940 C.ar  329  TYR329      0.1957
     75  OH        42.3160  -16.6470   29.3170 O.3   329  TYR329     -0.2866
     76  N         48.0350  -20.3520   34.2990 N.am  330  GLY330     -0.1942
     77  CA        49.0800  -21.1810   34.9120 C.3   330  GLY330      0.2014
     78  C         49.6030  -20.4720   36.1440 C.2   330  GLY330      0.2640
     79  O         48.8190  -19.9700   36.9730 O.2   330  GLY330     -0.2714
     80  N         50.9230  -20.3780   36.2560 N.am  331  THR331     -0.1936
     81  CA        51.5450  -19.6430   37.3550 C.3   331  THR331      0.2028
     82  C         52.0090  -18.2650   36.9230 C.2   331  THR331      0.2643
     83  O         52.6390  -17.5410   37.6860 O.2   331  THR331     -0.2714
     84  CB        52.7600  -20.4040   37.8710 C.3   331  THR331      0.1808
     85  OG1       53.6920  -20.5030   36.8020 O.3   331  THR331     -0.2208
     86  CG2       52.3630  -21.7990   38.3410 C.3   331  THR331      0.0379
     87  N         51.7040  -17.8760   35.6850 N.am  332  GLY332     -0.1939
     88  CA        52.1400  -16.5960   35.1860 C.3   332  GLY332      0.2014
     89  C         53.6100  -16.5970   34.7710 C.2   332  GLY332      0.2639
     90  O         54.1950  -15.5330   34.5700 O.2   332  GLY332     -0.2714
     91  N         54.1990  -17.7810   34.6770 N.am  333  ALA333     -0.1963
     92  CA        55.5960  -17.9570   34.2830 C.3   333  ALA333      0.1728
     93  C         55.7180  -19.2400   33.5010 C.2   333  ALA333      0.2616
     94  O         55.0660  -20.2410   33.8240 O.2   333  ALA333     -0.2715
     95  CB        56.4860  -18.0180   35.5150 C.3   333  ALA333      0.0334
     96  N         56.5850  -19.2300   32.4890 N.am  334  ILE334     -0.1963
     97  CA        56.7960  -20.4000   31.6550 C.3   334  ILE334      0.1727
     98  C         58.2440  -20.7630   31.5820 C.2   334  ILE334      0.2616
     99  O         59.1050  -19.9190   31.7590 O.2   334  ILE334     -0.2715
    100  CB        56.2970  -20.1910   30.1680 C.3   334  ILE334      0.0290
    101  CG1       57.1200  -19.1230   29.4420 C.3   334  ILE334      0.0022
    102  CG2       54.7890  -19.8230   30.1230 C.3   334  ILE334      0.0023
    103  CD1       57.0690  -19.2300   27.8890 C.3   334  ILE334      0.0001
    104  N         58.4960  -22.0380   31.3130 N.am  335  MET335     -0.1977
    105  CA        59.7700  -22.4760   30.7770 C.3   335  MET335      0.1605
    106  C         59.6390  -22.4760   29.2710 C.2   335  MET335      0.2287
    107  O         58.6560  -23.0050   28.7200 O.2   335  MET335     -0.2864
    108  CB        60.1900  -23.8290   31.2950 C.3   335  MET335      0.0413
    109  CG        59.3810  -25.0690   30.8530 C.3   335  MET335      0.0598
    110  SD        59.8640  -26.6120   31.6520 S.3   335  MET335     -0.1393
    111  CE        59.1350  -27.9100   30.6500 C.3   335  MET335      0.0692
    112  N         58.2620  -25.6880   20.9040 N.3   341  ASP341     -0.1239
    113  CA        57.1390  -24.7610   21.0440 C.3   341  ASP341      0.1674
    114  C         57.4680  -23.6440   20.0930 C.2   341  ASP341      0.2266
    115  O         58.4630  -22.9640   20.2530 O.2   341  ASP341     -0.2867
    116  CB        57.0640  -24.2820   22.5060 C.3   341  ASP341      0.1410
    117  CG        55.9960  -23.2290   22.7670 C.2   341  ASP341      0.3668
    118  OD1       55.6720  -22.4110   21.8890 O.co2 341  ASP341     -0.2456
    119  OD2       55.4990  -23.2010   23.9290 O.co2 341  ASP341     -0.2456
    120  N         56.1210  -20.7460   19.4720 N.3   343  ARG343     -0.1231
    121  CA        56.1370  -19.3740   20.0070 C.3   343  ARG343      0.1694
    122  C         57.5240  -19.0780   20.5850 C.2   343  ARG343      0.2592
    123  O         58.1290  -18.0300   20.3060 O.2   343  ARG343     -0.2718
    124  CB        55.0470  -19.1800   21.0850 C.3   343  ARG343      0.0321
    125  CG        53.6470  -19.5920   20.6650 C.3   343  ARG343      0.0489
    126  CD        52.6920  -19.9290   21.8660 C.3   343  ARG343      0.2205
    127  NE        53.0730  -21.1360   22.6530 N.pl3 343  ARG343     -0.0865
    128  CZ        52.3080  -21.6940   23.6050 C.cat 343  ARG343      0.5346
    129  NH1       51.0980  -21.1800   23.8960 N.pl3 343  ARG343      0.1354
    130  NH2       52.7400  -22.7640   24.2910 N.pl3 343  ARG343      0.1354
    131  N         58.0460  -20.0430   21.3420 N.am  344  ASP344     -0.1974
    132  CA        59.3690  -19.9330   21.9560 C.3   344  ASP344      0.1709
    133  C         60.4730  -19.9700   20.8950 C.2   344  ASP344      0.2293
    134  O         61.4650  -19.3110   21.0440 O.2   344  ASP344     -0.2864
    135  CB        59.6070  -21.0510   22.9660 C.3   344  ASP344      0.1436
    136  CG        58.6230  -21.0340   24.1310 C.2   344  ASP344      0.3671
    137  OD1       58.0050  -20.0010   24.3820 O.co2 344  ASP344     -0.2456
    138  OD2       58.4520  -22.0670   24.7740 O.co2 344  ASP344     -0.2456
    139  N         45.3240  -31.1400   33.7800 N.3   413  THR413     -0.1218
    140  CA        44.5260  -30.0240   33.2630 C.3   413  THR413      0.1862
    141  C         43.6230  -30.5090   32.1360 C.2   413  THR413      0.2287
    142  O         43.7500  -31.6240   31.6730 O.2   413  THR413     -0.2866
    143  CB        45.3880  -28.8320   32.8070 C.3   413  THR413      0.1770
    144  OG1       46.2280  -29.2080   31.7030 O.3   413  THR413     -0.2211
    145  CG2       46.2450  -28.2810   34.0180 C.3   413  THR413      0.0375
    146  N         36.6970  -25.6690   29.0500 N.3   417  ARG417     -0.1245
    147  CA        36.5700  -24.4360   29.7880 C.3   417  ARG417      0.1563
    148  C         35.2100  -24.3250   30.4120 C.2   417  ARG417      0.2260
    149  O         34.2710  -25.0470   30.0300 O.2   417  ARG417     -0.2867
    150  CB        36.8080  -23.2450   28.8690 C.3   417  ARG417      0.0307
    151  CG        38.1180  -23.2590   28.0830 C.3   417  ARG417      0.0489
    152  CD        39.2550  -22.5940   28.8210 C.3   417  ARG417      0.2205
    153  NE        39.7000  -23.4420   29.9130 N.pl3 417  ARG417     -0.0865
    154  CZ        40.8630  -24.1010   29.9760 C.cat 417  ARG417      0.5346
    155  NH1       41.7990  -24.0010   29.0280 N.pl3 417  ARG417      0.1354
    156  NH2       41.0870  -24.8690   31.0350 N.pl3 417  ARG417      0.1354
@<TRIPOS>BOND
     1   120   121    1
     2   121   122    1
     3   121   124    1
     4   114   115    2
     5   114   113    1
     6   123   122    2
     7   122   131   am
     8   125   124    1
     9   125   126    1
    10   133   134    2
    11   133   132    1
    12   112   113    1
    13   113   116    1
    14   131   132    1
    15   126   127    1
    16   118   117   ar
    17   132   135    1
    18   116   117    1
    19   127   128    2
    20    35    34    1
    21   117   119   ar
    22   135   136    1
    23    36    34    1
    24   128   129    1
    25   128   130    1
    26    34    33    2
    27   136   137   ar
    28   136   138   ar
    29    41    42    1
    30    41    38    1
    31    42    43   ar
    32    42    44   ar
    33    43    45   ar
    34    44    46   ar
    35    45    47   ar
    36    46    47   ar
    37    47    48    1
    38    33    32    1
    39    38    37    1
    40    38    39    1
    41    32    31    1
    42    31    30    1
    43    40    39    2
    44    39    49   am
    45    30    27    1
    46    49    50    1
    47    24    23    1
    48    62    61    1
    49    63    61    1
    50   103   101    1
    51   151   152    1
    52   151   150    1
    53    27    26    1
    54    27    28    1
    55    61    60    1
    56    22    21    2
    57    23    25    1
    58    23    20    1
    59    55    53    1
    60   107   106    2
    61    50    51    1
    62    50    53    1
    63    26    21   am
    64   152   153    1
    65    29    28    2
    66    21    20    1
    67   150   147    1
    68   155   154    1
    69   146   147    1
    70   106   105    1
    71    75    74    1
    72   101   100    1
    73    51    56   am
    74    51    52    2
    75    53    54    1
    76    20    19    1
    77    73    74   ar
    78    73    71   ar
    79   147   148    1
    80    56    57    1
    81    60    57    1
    82    74    72   ar
    83   153   154    2
    84   154   156    1
    85   149   148    2
    86    19    14   am
    87   102   100    1
    88    17    16    1
    89   100    97    1
    90    71    69   ar
    91    57    58    1
    92    72    70   ar
    93   111   110    1
    94   105   108    1
    95   105   104    1
    96   109   108    1
    97   109   110    1
    98    69    70   ar
    99    69    68    1
   100   104    98   am
   101    14    13    1
   102    14    15    2
   103    16    13    1
   104    16    18    1
   105    98    97    1
   106    98    99    2
   107    97    96    1
   108    13    12    1
   109   142   141    2
   110   144   143    1
   111    68    65    1
   112    58    59    2
   113   141   140    1
   114    10    11   ar
   115    10     8   ar
   116     4     3    2
   117    96    93   am
   118   143   140    1
   119   143   145    1
   120    11     9   ar
   121     8     6   ar
   122    12     3   am
   123     3     2    1
   124   140   139    1
   125    65    64    1
   126    65    66    1
   127    93    94    2
   128    93    92    1
   129    66    67    2
   130    66    76   am
   131     9     7   ar
   132     6     7   ar
   133     6     5    1
   134    92    91    1
   135    92    95    1
   136    76    77    1
   137    90    89    2
   138     2     5    1
   139     2     1    1
   140    91    89   am
   141    89    88    1
   142    77    78    1
   143    88    87    1
   144    87    82   am
   145    78    80   am
   146    78    79    2
   147    80    81    1
   148    85    84    1
   149    82    81    1
   150    82    83    2
   151    81    84    1
   152    84    86    1
