@<TRIPOS>MOLECULE
tmp/2v0dA00.pdb
 147 138 0 0 0
SMALL
GASTEIGER

@<TRIPOS>ATOM
      1  N         13.8630  -14.7560    5.6100 N.3    10  ILE10      -0.1231
      2  CA        12.8740  -13.6900    5.7960 C.3    10  ILE10       0.1692
      3  C         13.0570  -12.6070    4.7220 C.2    10  ILE10       0.2593
      4  O         12.0860  -12.1980    4.0880 O.2    10  ILE10      -0.2718
      5  CB        12.9390  -13.0760    7.2190 C.3    10  ILE10       0.0266
      6  CG1       12.3090  -14.0140    8.2440 C.3    10  ILE10       0.0019
      7  CG2       12.2930  -11.6580    7.2730 C.3    10  ILE10       0.0020
      8  CD1       12.8650  -13.8190    9.6370 C.3    10  ILE10       0.0001
      9  N         14.2890  -12.1530    4.5080 N.am   11  GLY11      -0.1942
     10  CA        14.5260  -11.0300    3.6080 C.3    11  GLY11       0.2014
     11  C         15.9680  -10.5760    3.6050 C.2    11  GLY11       0.2639
     12  O         16.8470  -11.2820    4.0670 O.2    11  GLY11      -0.2714
     13  N         16.1970   -9.3940    3.0490 N.am   12  GLU12      -0.1963
     14  CA        17.4930   -8.7440    3.0490 C.3    12  GLU12       0.1733
     15  C         17.3210   -7.4340    3.7910 C.2    12  GLU12       0.2616
     16  O         16.6040   -6.5280    3.3190 O.2    12  GLU12      -0.2715
     17  CB        17.9870   -8.4710    1.6250 C.3    12  GLU12       0.0429
     18  CG        18.0460   -9.6900    0.6650 C.3    12  GLU12       0.1163
     19  CD        19.3040  -10.5590    0.7870 C.2    12  GLU12       0.3649
     20  OE1       20.2960  -10.1410    1.4360 O.co2  12  GLU12      -0.2457
     21  OE2       19.2960  -11.6760    0.2140 O.co2  12  GLU12      -0.2457
     22  N         17.9320   -7.3490    4.9730 N.am   13  GLY13      -0.1955
     23  CA        17.9630   -6.1110    5.7260 C.3    13  GLY13       0.1869
     24  C         19.0800   -5.1870    5.2640 C.2    13  GLY13       0.2309
     25  O         19.8240   -5.4800    4.3180 O.2    13  GLY13      -0.2863
     26  N         18.5090  -11.9850    6.4390 N.3    18  VAL18      -0.1245
     27  CA        17.7420  -12.2600    7.6550 C.3    18  VAL18       0.1561
     28  C         17.0120  -13.5880    7.5010 C.2    18  VAL18       0.2260
     29  O         16.2700  -13.8030    6.5440 O.2    18  VAL18      -0.2867
     30  CB        16.7150  -11.1170    7.9660 C.3    18  VAL18       0.0252
     31  CG1       15.9860  -11.3560    9.3140 C.3    18  VAL18       0.0019
     32  CG2       17.4020   -9.8100    7.9980 C.3    18  VAL18       0.0019
     33  N         15.2430  -14.8280   14.9170 N.3    31  ALA31      -0.1245
     34  CA        15.6840  -14.0890   13.7340 C.3    31  ALA31       0.1562
     35  C         17.2110  -14.0810   13.7170 C.2    31  ALA31       0.2260
     36  O         17.8390  -13.6340   14.6570 O.2    31  ALA31      -0.2867
     37  CB        15.1480  -12.6780   13.7470 C.3    31  ALA31       0.0290
     38  N         20.5740  -12.7660   11.9230 N.3    33  LYS33      -0.1245
     39  CA        21.0520  -11.7050   11.0500 C.3    33  LYS33       0.1561
     40  C         22.5610  -11.7690   10.7580 C.2    33  LYS33       0.2260
     41  O         23.3740  -11.7130   11.6420 O.2    33  LYS33      -0.2867
     42  CB        20.6080  -10.3310   11.5850 C.3    33  LYS33       0.0271
     43  CG        19.0720  -10.2440   11.7110 C.3    33  LYS33       0.0035
     44  CD        18.5710   -8.8390   11.9490 C.3    33  LYS33       0.0206
     45  CE        17.0500   -8.8610   11.9670 C.3    33  LYS33       0.1093
     46  NZ        16.4380   -7.4960   11.8970 N.3    33  LYS33      -0.1314
     47  N         12.6360   -5.3980   20.2620 N.3    58  VAL58      -0.1245
     48  CA        12.9300   -6.7770   19.8730 C.3    58  VAL58       0.1561
     49  C         14.2230   -7.1770   20.5620 C.2    58  VAL58       0.2260
     50  O         15.2890   -6.5360   20.3570 O.2    58  VAL58      -0.2867
     51  CB        13.0750   -7.0040   18.2860 C.3    58  VAL58       0.0252
     52  CG1       13.4650   -8.5170   17.9720 C.3    58  VAL58       0.0019
     53  CG2       11.8230   -6.6770   17.5720 C.3    58  VAL58       0.0019
     54  N         18.0580  -12.5650   17.3640 N.3    74  PHE74      -0.1227
     55  CA        16.9770  -11.7940   17.9390 C.3    74  PHE74       0.1736
     56  C         15.8210  -12.7390   18.2460 C.2    74  PHE74       0.2595
     57  O         15.6660  -13.7560   17.5830 O.2    74  PHE74      -0.2718
     58  CB        16.4980  -10.6860   16.9560 C.3    74  PHE74       0.0547
     59  CG        17.4520   -9.5190   16.8160 C.ar   74  PHE74      -0.0202
     60  CD1       17.4000   -8.4660   17.7060 C.ar   74  PHE74      -0.0042
     61  CD2       18.3650   -9.4650   15.7770 C.ar   74  PHE74      -0.0042
     62  CE1       18.2250   -7.3850   17.5890 C.ar   74  PHE74      -0.0003
     63  CE2       19.2240   -8.3950   15.6430 C.ar   74  PHE74      -0.0003
     64  CZ        19.1390   -7.3260   16.5380 C.ar   74  PHE74      -0.0000
     65  N         15.0490  -12.3950   19.2740 N.am   75  GLU75      -0.1965
     66  CA        13.6490  -12.8500   19.4520 C.3    75  GLU75       0.1733
     67  C         12.9090  -12.8760   18.0910 C.2    75  GLU75       0.2616
     68  O         12.9980  -11.9500   17.3410 O.2    75  GLU75      -0.2715
     69  CB        12.9800  -11.8250   20.3930 C.3    75  GLU75       0.0429
     70  CG        11.4830  -11.8670   20.5060 C.3    75  GLU75       0.1163
     71  CD        10.9110  -10.7530   21.3720 C.2    75  GLU75       0.3649
     72  OE1       11.5730   -9.6910   21.6140 O.co2  75  GLU75      -0.2457
     73  OE2        9.7560  -10.9640   21.8250 O.co2  75  GLU75      -0.2457
     74  N         12.1810  -13.9310   17.7600 N.am   76  PHE76      -0.1960
     75  CA        11.4920  -13.9850   16.4610 C.3    76  PHE76       0.1771
     76  C         10.1030  -13.3580   16.5720 C.2    76  PHE76       0.2619
     77  O          9.3540  -13.7490   17.4250 O.2    76  PHE76      -0.2715
     78  CB        11.3810  -15.4480   15.9120 C.3    76  PHE76       0.0574
     79  CG        10.6860  -15.5410   14.5760 C.ar   76  PHE76      -0.0200
     80  CD1        9.3880  -15.9370   14.4920 C.ar   76  PHE76      -0.0042
     81  CD2       11.3530  -15.1830   13.3950 C.ar   76  PHE76      -0.0042
     82  CE1        8.7300  -16.0140   13.2420 C.ar   76  PHE76      -0.0003
     83  CE2       10.7180  -15.2600   12.1700 C.ar   76  PHE76      -0.0003
     84  CZ         9.3930  -15.6790   12.0980 C.ar   76  PHE76      -0.0000
     85  N          9.7840  -12.3900   15.7040 N.am   77  LEU77      -0.1977
     86  CA         8.4080  -11.9170   15.4750 C.3    77  LEU77       0.1596
     87  C          7.9430  -12.3160   14.0600 C.2    77  LEU77       0.2287
     88  O          8.7360  -12.3440   13.0920 O.2    77  LEU77      -0.2864
     89  CB         8.2360  -10.4030   15.7840 C.3    77  LEU77       0.0297
     90  CG         8.2460  -10.1720   17.3230 C.3    77  LEU77       0.0022
     91  CD1        9.7060   -9.8410   17.9030 C.3    77  LEU77       0.0001
     92  CD2        7.2480   -9.1900   17.8530 C.3    77  LEU77       0.0001
     93  N          5.6960   -8.0100   10.2010 N.3    80  ASP80      -0.1239
     94  CA         6.0330   -6.5680   10.2760 C.3    80  ASP80       0.1674
     95  C          4.8530   -5.6730    9.8830 C.2    80  ASP80       0.2266
     96  O          3.9040   -6.1390    9.2530 O.2    80  ASP80      -0.2867
     97  CB         7.2860   -6.2100    9.4730 C.3    80  ASP80       0.1410
     98  CG         7.0910   -6.3490    7.9970 C.2    80  ASP80       0.3668
     99  OD1        5.9850   -6.0630    7.5080 O.co2  80  ASP80      -0.2456
    100  OD2        8.0450   -6.7190    7.3090 O.co2  80  ASP80      -0.2456
    101  N         11.2190    2.4810   10.2260 N.3   123  LYS123     -0.1245
    102  CA        10.4510    2.2360    9.0030 C.3   123  LYS123      0.1561
    103  C          9.5300    1.0370    9.1870 C.2   123  LYS123      0.2260
    104  O          9.7730    0.2090   10.0560 O.2   123  LYS123     -0.2867
    105  CB        11.3710    2.0660    7.7970 C.3   123  LYS123      0.0271
    106  CG        12.1510    0.7890    7.8020 C.3   123  LYS123      0.0035
    107  CD        13.3640    1.0390    6.9810 C.3   123  LYS123      0.0206
    108  CE        14.1990   -0.1540    6.9100 C.3   123  LYS123      0.1093
    109  NZ        15.3830    0.2160    6.1430 N.3   123  LYS123     -0.1314
    110  N          9.1490   -1.7750    7.9300 N.3   125  GLN125     -0.1231
    111  CA         9.8860   -3.0490    7.9360 C.3   125  GLN125      0.1698
    112  C         10.5490   -3.4300    9.2650 C.2   125  GLN125      0.2592
    113  O         10.6860   -4.6200    9.5980 O.2   125  GLN125     -0.2718
    114  CB        10.9370   -3.0130    6.8420 C.3   125  GLN125      0.0381
    115  CG        11.2520   -4.3840    6.2710 C.3   125  GLN125      0.0905
    116  CD        12.4360   -4.3820    5.3280 C.2   125  GLN125      0.2608
    117  OE1       13.1430   -3.3850    5.2160 O.2   125  GLN125     -0.2717
    118  NE2       12.6330   -5.4970    4.6150 N.am  125  GLN125     -0.0878
    119  N         10.9550   -2.3980    9.9990 N.am  126  ASN126     -0.1974
    120  CA        11.5920   -2.4630   11.3340 C.3   126  ASN126      0.1688
    121  C         10.6150   -2.5810   12.4880 C.2   126  ASN126      0.2292
    122  O         11.0060   -2.6210   13.6260 O.2   126  ASN126     -0.2864
    123  CB        12.4200   -1.1520   11.5400 C.3   126  ASN126      0.1181
    124  CG        13.7000   -1.1720   10.7860 C.2   126  ASN126      0.2629
    125  OD1       14.1450   -2.2410   10.3080 O.2   126  ASN126     -0.2716
    126  ND2       14.3370   -0.0120   10.6600 N.am  126  ASN126     -0.0877
    127  N          7.5220   -4.5270   14.3460 N.3   128  LEU128     -0.1245
    128  CA         7.1960   -5.9200   14.3280 C.3   128  LEU128      0.1561
    129  C          6.1300   -6.2120   15.3670 C.2   128  LEU128      0.2260
    130  O          6.1560   -5.6940   16.4900 O.2   128  LEU128     -0.2867
    131  CB         8.4380   -6.7910   14.5220 C.3   128  LEU128      0.0270
    132  CG         9.6670   -6.7580   13.5820 C.3   128  LEU128      0.0019
    133  CD1       10.6670   -7.7510   14.1370 C.3   128  LEU128      0.0001
    134  CD2        9.3810   -7.0980   12.1630 C.3   128  LEU128      0.0001
    135  N         12.6680   -3.3670   15.8200 N.3   138  ALA138     -0.1231
    136  CA        13.8580   -4.1290   15.4020 C.3   138  ALA138      0.1694
    137  C         15.0370   -3.2140   14.9900 C.2   138  ALA138      0.2592
    138  O         14.8250   -2.0760   14.5960 O.2   138  ALA138     -0.2718
    139  CB        13.5070   -5.0680   14.2540 C.3   138  ALA138      0.0304
    140  N         16.2740   -3.7230   15.1250 N.am  139  ASP139     -0.1974
    141  CA        17.5130   -3.0360   14.7390 C.3   139  ASP139      0.1709
    142  C         17.8370   -1.7410   15.4990 C.2   139  ASP139      0.2293
    143  O         18.5670   -0.8790   15.0040 O.2   139  ASP139     -0.2864
    144  CB        17.5970   -2.9110   13.2000 C.3   139  ASP139      0.1436
    145  CG        17.4660   -4.2980   12.5300 C.2   139  ASP139      0.3671
    146  OD1       17.5420   -5.3000   13.2860 O.co2 139  ASP139     -0.2456
    147  OD2       17.2620   -4.4130   11.3040 O.co2 139  ASP139     -0.2456
@<TRIPOS>BOND
     1    21    19   ar
     2    18    19    1
     3    18    17    1
     4    19    20   ar
     5    17    14    1
     6    14    13    1
     7    14    15    1
     8    13    11   am
     9    16    15    2
    10    11    10    1
    11    11    12    2
    12    10     9    1
    13    15    22   am
    14     4     3    2
    15    25    24    2
    16     9     3   am
    17   118   116   am
    18     3     2    1
    19    22    23    1
    20   117   116    2
    21    24    23    1
    22   116   115    1
    23     1     2    1
    24     2     5    1
    25   109   108    1
    26   115   114    1
    27    26    27    1
    28    29    28    2
    29   114   111    1
    30   108   107    1
    31   107   106    1
    32     5     7    1
    33     5     6    1
    34   100    98   ar
    35    28    27    1
    36    99    98   ar
    37    27    30    1
    38   105   106    1
    39   105   102    1
    40   110   111    1
    41   111   112    1
    42    30    32    1
    43    30    31    1
    44    98    97    1
    45     6     8    1
    46   102   103    1
    47   102   101    1
    48   103   104    2
    49    96    95    2
    50   112   113    2
    51   112   119   am
    52    97    94    1
    53    95    94    1
    54   119   120    1
    55    93    94    1
    56   125   124    2
    57   126   124   am
    58    40    39    1
    59    40    41    2
    60   124   123    1
    61    39    42    1
    62    39    38    1
    63   147   145   ar
    64   120   123    1
    65   120   121    1
    66    42    43    1
    67    43    44    1
    68    46    45    1
    69    44    45    1
    70    84    83   ar
    71    84    82   ar
    72   134   132    1
    73    83    81   ar
    74   121   122    2
    75   145   144    1
    76   145   146   ar
    77    88    87    2
    78   144   141    1
    79    82    80   ar
    80    81    79   ar
    81   132   133    1
    82   132   131    1
    83    35    34    1
    84    35    36    2
    85    34    37    1
    86    34    33    1
    87    87    86    1
    88   139   136    1
    89   128   127    1
    90   128   131    1
    91   128   129    1
    92    80    79   ar
    93    79    78    1
    94   138   137    2
    95   141   140    1
    96   141   142    1
    97   137   140   am
    98   137   136    1
    99   143   142    2
   100   129   130    2
   101   136   135    1
   102    86    85    1
   103    86    89    1
   104    63    61   ar
   105    63    64   ar
   106    85    76   am
   107    61    59   ar
   108    89    90    1
   109    78    75    1
   110    75    76    1
   111    75    74    1
   112    64    62   ar
   113    76    77    2
   114    59    58    1
   115    59    60   ar
   116    58    55    1
   117    90    92    1
   118    90    91    1
   119    68    67    2
   120    54    55    1
   121    53    51    1
   122    57    56    2
   123    62    60   ar
   124    74    67   am
   125    55    56    1
   126    52    51    1
   127    67    66    1
   128    56    65   am
   129    51    48    1
   130    65    66    1
   131    66    69    1
   132    48    47    1
   133    48    49    1
   134    50    49    2
   135    69    70    1
   136    70    71    1
   137    71    72   ar
   138    71    73   ar
