@<TRIPOS>MOLECULE
tmp/2v0hA02.pdb
 76 71 0 0 0
SMALL
GASTEIGER

@<TRIPOS>ATOM
      1  N         72.8280   40.6480   46.4060 N.3   128  VAL128     -0.1245
      2  CA        71.4950   40.2500   45.9710 C.3   128  VAL128      0.1561
      3  C         70.8460   39.3180   46.9950 C.2   128  VAL128      0.2260
      4  O         71.5030   38.4460   47.5560 O.2   128  VAL128     -0.2867
      5  CB        71.5300   39.5830   44.5720 C.3   128  VAL128      0.0252
      6  CG1       72.2430   38.2350   44.6110 C.3   128  VAL128      0.0019
      7  CG2       70.1210   39.4460   44.0060 C.3   128  VAL128      0.0019
      8  N         68.5490   36.2790   47.8400 N.3   130  LEU130     -0.1245
      9  CA        67.9980   35.0430   47.2960 C.3   130  LEU130      0.1561
     10  C         67.1370   34.3620   48.3520 C.2   130  LEU130      0.2260
     11  O         67.4140   34.4700   49.5470 O.2   130  LEU130     -0.2867
     12  CB        69.1260   34.1010   46.8710 C.3   130  LEU130      0.0270
     13  CG        70.1120   34.6470   45.8340 C.3   130  LEU130      0.0019
     14  CD1       71.2610   33.6720   45.6270 C.3   130  LEU130      0.0001
     15  CD2       69.4040   34.9300   44.5160 C.3   130  LEU130      0.0001
     16  N         76.3460   30.2660   48.2730 N.3   136  TYR136     -0.1241
     17  CA        76.8840   31.6060   48.0400 C.3   136  TYR136      0.1605
     18  C         77.3710   32.2520   49.3360 C.2   136  TYR136      0.2264
     19  O         76.9060   31.9080   50.4210 O.2   136  TYR136     -0.2867
     20  CB        75.8130   32.4830   47.3850 C.3   136  TYR136      0.0534
     21  CG        75.3260   31.9460   46.0540 C.ar  136  TYR136     -0.0201
     22  CD1       74.1250   31.2440   45.9590 C.ar  136  TYR136     -0.0009
     23  CD2       76.0730   32.1290   44.8930 C.ar  136  TYR136     -0.0009
     24  CE1       73.6770   30.7450   44.7380 C.ar  136  TYR136      0.0417
     25  CE2       75.6350   31.6340   43.6670 C.ar  136  TYR136      0.0417
     26  CZ        74.4370   30.9430   43.5970 C.ar  136  TYR136      0.1957
     27  OH        74.0000   30.4520   42.3870 O.3   136  TYR136     -0.2866
     28  N         73.5870   37.9330   49.5600 N.3   165  VAL165     -0.1231
     29  CA        74.8050   37.2420   49.1420 C.3   165  VAL165      0.1692
     30  C         75.6680   38.0860   48.2030 C.2   165  VAL165      0.2592
     31  O         75.2230   39.0940   47.6550 O.2   165  VAL165     -0.2718
     32  CB        74.5030   35.8660   48.4820 C.3   165  VAL165      0.0266
     33  CG1       73.7390   34.9650   49.4420 C.3   165  VAL165      0.0020
     34  CG2       73.7340   36.0220   47.1730 C.3   165  VAL165      0.0020
     35  N         76.9060   37.6400   48.0240 N.am  166  ASN166     -0.1960
     36  CA        77.8970   38.3350   47.2110 C.3   166  ASN166      0.1819
     37  C         77.7070   37.9990   45.7360 C.2   166  ASN166      0.2621
     38  O         77.4950   36.8390   45.3900 O.2   166  ASN166     -0.2715
     39  CB        79.3010   37.9190   47.6690 C.3   166  ASN166      0.1195
     40  CG        80.4010   38.5030   46.8080 C.2   166  ASN166      0.2630
     41  OD1       80.3550   39.6680   46.4300 O.2   166  ASN166     -0.2716
     42  ND2       81.4070   37.6920   46.5070 N.am  166  ASN166     -0.0877
     43  N         77.7800   39.0130   44.8750 N.am  167  THR167     -0.1951
     44  CA        77.7080   38.8120   43.4220 C.3   167  THR167      0.1897
     45  C         79.0800   38.8400   42.7480 C.2   167  THR167      0.2313
     46  O         79.2180   38.3850   41.6170 O.2   167  THR167     -0.2863
     47  CB        76.8290   39.8900   42.7520 C.3   167  THR167      0.1794
     48  OG1       77.4640   41.1700   42.8660 O.3   167  THR167     -0.2208
     49  CG2       75.4850   40.0580   43.4600 C.3   167  THR167      0.0378
     50  N         66.7700   40.1510   40.8450 N.3   217  VAL217     -0.1245
     51  CA        67.6820   39.0150   40.9870 C.3   217  VAL217      0.1561
     52  C         68.2640   38.6150   39.6320 C.2   217  VAL217      0.2260
     53  O         69.4450   38.2780   39.5300 O.2   217  VAL217     -0.2867
     54  CB        66.9760   37.7890   41.6220 C.3   217  VAL217      0.0252
     55  CG1       67.9080   36.5720   41.6570 C.3   217  VAL217      0.0019
     56  CG2       66.4770   38.1250   43.0260 C.3   217  VAL217      0.0019
     57  N         71.6760   40.2590   37.9920 N.3   220  VAL220     -0.1231
     58  CA        73.0310   39.7770   38.2730 C.3   220  VAL220      0.1692
     59  C         73.2200   38.3010   37.9120 C.2   220  VAL220      0.2592
     60  O         74.2790   37.7240   38.1610 O.2   220  VAL220     -0.2718
     61  CB        73.4190   40.0070   39.7590 C.3   220  VAL220      0.0266
     62  CG1       73.3630   41.4880   40.0930 C.3   220  VAL220      0.0020
     63  CG2       72.5240   39.1980   40.7130 C.3   220  VAL220      0.0020
     64  N         72.1930   37.7030   37.3170 N.am  221  GLU221     -0.1966
     65  CA        72.2130   36.2970   36.9340 C.3   221  GLU221      0.1733
     66  C         73.1440   36.0470   35.7490 C.2   221  GLU221      0.2616
     67  O         73.1070   36.7740   34.7580 O.2   221  GLU221     -0.2715
     68  CB        70.7970   35.8430   36.5770 C.3   221  GLU221      0.0429
     69  CG        70.5830   34.3460   36.6600 C.3   221  GLU221      0.1163
     70  CD        70.3840   33.8670   38.0820 C.2   221  GLU221      0.3649
     71  OE1       71.1920   33.0340   38.5440 O.co2 221  GLU221     -0.2457
     72  OE2       69.4230   34.3260   38.7390 O.co2 221  GLU221     -0.2457
     73  N         73.9700   35.0110   35.8630 N.am  222  GLY222     -0.1955
     74  CA        74.8620   34.6060   34.7920 C.3   222  GLY222      0.1869
     75  C         74.2990   33.4270   34.0190 C.2   222  GLY222      0.2309
     76  O         73.2190   32.9240   34.3400 O.2   222  GLY222     -0.2863
@<TRIPOS>BOND
     1    75    76    2
     2    75    74    1
     3    67    66    2
     4    74    73    1
     5    66    73   am
     6    66    65    1
     7    68    69    1
     8    68    65    1
     9    69    70    1
    10    65    64    1
    11    64    59   am
    12    59    60    2
    13    59    58    1
    14    57    58    1
    15    70    71   ar
    16    70    72   ar
    17    58    61    1
    18    53    52    2
    19    52    51    1
    20    61    62    1
    21    61    63    1
    22    50    51    1
    23    51    54    1
    24    46    45    2
    25    54    55    1
    26    54    56    1
    27    27    26    1
    28    45    44    1
    29    47    48    1
    30    47    44    1
    31    47    49    1
    32    44    43    1
    33    26    25   ar
    34    26    24   ar
    35    25    23   ar
    36     7     5    1
    37    15    13    1
    38     5     6    1
    39     5     2    1
    40    24    22   ar
    41    43    37   am
    42    23    21   ar
    43    38    37    2
    44    14    13    1
    45    37    36    1
    46    13    12    1
    47    22    21   ar
    48     2     1    1
    49     2     3    1
    50    21    20    1
    51    41    40    2
    52    42    40   am
    53    40    39    1
    54    12     9    1
    55     3     4    2
    56    34    32    1
    57    36    39    1
    58    36    35    1
    59     9     8    1
    60     9    10    1
    61    20    17    1
    62    31    30    2
    63    35    30   am
    64    17    16    1
    65    17    18    1
    66    30    29    1
    67    10    11    2
    68    32    29    1
    69    32    33    1
    70    29    28    1
    71    18    19    2
