@<TRIPOS>MOLECULE
tmp/2v0iA00.pdb
 198 184 0 0 0
SMALL
GASTEIGER

@<TRIPOS>ATOM
      1  N         62.9230   -0.1470   84.0960 N.3     8  LEU8       -0.1231
      2  CA        64.3560    0.0460   84.2050 C.3     8  LEU8        0.1693
      3  C         64.6360    1.0770   85.2900 C.2     8  LEU8        0.2592
      4  O         64.1600    2.2030   85.2050 O.2     8  LEU8       -0.2718
      5  CB        64.9560    0.5170   82.8790 C.3     8  LEU8        0.0284
      6  CG        65.1950   -0.5970   81.8480 C.3     8  LEU8        0.0019
      7  CD1       63.8720   -1.0980   81.3090 C.3     8  LEU8        0.0001
      8  CD2       66.0890   -0.1080   80.7150 C.3     8  LEU8        0.0001
      9  N         65.4210    0.6920   86.2900 N.am    9  ALA9       -0.1966
     10  CA        65.5960    1.5200   87.4930 C.3     9  ALA9        0.1728
     11  C         66.9640    1.3630   88.1540 C.2     9  ALA9        0.2616
     12  O         67.1100    1.6230   89.3560 O.2     9  ALA9       -0.2715
     13  CB        64.4850    1.1830   88.5050 C.3     9  ALA9        0.0334
     14  N         67.9680    0.9670   87.3770 N.am   10  ALA10      -0.1963
     15  CA        69.2670    0.5940   87.9350 C.3    10  ALA10       0.1728
     16  C         70.2710    1.7440   87.9620 C.2    10  ALA10       0.2616
     17  O         71.3880    1.5570   88.4070 O.2    10  ALA10      -0.2715
     18  CB        69.8520   -0.5740   87.1610 C.3    10  ALA10       0.0334
     19  N         69.8690    2.9220   87.5010 N.am   11  GLY11      -0.1955
     20  CA        70.8060    4.0130   87.2680 C.3    11  GLY11       0.1869
     21  C         71.2740    4.7200   88.5220 C.2    11  GLY11       0.2309
     22  O         70.5270    4.8410   89.4920 O.2    11  GLY11      -0.2863
     23  N         69.0040    7.0980   91.3410 N.3    22  LYS22      -0.1245
     24  CA        68.2440    8.0230   90.5160 C.3    22  LYS22       0.1561
     25  C         66.7390    7.9900   90.7830 C.2    22  LYS22       0.2260
     26  O         66.1000    9.0450   90.9030 O.2    22  LYS22      -0.2867
     27  CB        68.5160    7.7120   89.0440 C.3    22  LYS22       0.0271
     28  CG        68.0990    8.8190   88.0700 C.3    22  LYS22       0.0035
     29  CD        68.3580    8.3920   86.6420 C.3    22  LYS22       0.0206
     30  CE        68.4970    9.5770   85.7170 C.3    22  LYS22       0.1093
     31  NZ        68.3840    9.1790   84.2780 N.3    22  LYS22      -0.1314
     32  N         63.9930   -3.7140   87.3400 N.3    51  ILE51      -0.1245
     33  CA        65.4160   -3.8660   87.1000 C.3    51  ILE51       0.1561
     34  C         66.1530   -2.8640   87.9600 C.2    51  ILE51       0.2260
     35  O         66.0230   -1.6540   87.7710 O.2    51  ILE51      -0.2867
     36  CB        65.7990   -3.6350   85.6080 C.3    51  ILE51       0.0252
     37  CG1       64.8550   -4.3710   84.6510 C.3    51  ILE51       0.0019
     38  CG2       67.2510   -4.0400   85.3810 C.3    51  ILE51       0.0019
     39  CD1       64.7150   -5.8470   84.8950 C.3    51  ILE51       0.0001
     40  N         70.3920   -6.1930   88.1990 N.3    73  GLN73      -0.1245
     41  CA        71.3190   -6.0160   87.0920 C.3    73  GLN73       0.1566
     42  C         72.6680   -5.5960   87.6680 C.2    73  GLN73       0.2260
     43  O         72.8840   -4.4290   88.0090 O.2    73  GLN73      -0.2867
     44  CB        70.8000   -4.9500   86.1160 C.3    73  GLN73       0.0367
     45  CG        71.6240   -4.8310   84.8380 C.3    73  GLN73       0.0905
     46  CD        71.3080   -3.6040   84.0010 C.2    73  GLN73       0.2608
     47  OE1       70.9250   -2.5590   84.5260 O.2    73  GLN73      -0.2717
     48  NE2       71.5000   -3.7220   82.6930 N.am   73  GLN73      -0.0878
     49  N         75.5080   -2.2980   84.3180 N.3    76  GLN76      -0.1245
     50  CA        74.5960   -1.5160   83.4760 C.3    76  GLN76       0.1566
     51  C         75.1260   -1.4630   82.0430 C.2    76  GLN76       0.2260
     52  O         75.6880   -0.4590   81.6060 O.2    76  GLN76      -0.2867
     53  CB        74.3960   -0.1090   84.0590 C.3    76  GLN76       0.0367
     54  CG        73.4050   -0.0580   85.2310 C.3    76  GLN76       0.0905
     55  CD        73.8050   -0.9350   86.4130 C.2    76  GLN76       0.2608
     56  OE1       74.8100   -0.6770   87.0730 O.2    76  GLN76      -0.2717
     57  NE2       73.0120   -1.9610   86.6870 N.am   76  GLN76      -0.0878
     58  N         73.5670   -1.5940   79.1490 N.3    78  GLY78      -0.1210
     59  CA        72.6970   -1.0110   78.1410 C.3    78  GLY78       0.1956
     60  C         71.2440   -1.3650   78.3790 C.2    78  GLY78       0.2612
     61  O         70.9350   -2.3230   79.0900 O.2    78  GLY78      -0.2717
     62  N         70.3410   -0.5960   77.7780 N.am   79  THR79      -0.1952
     63  CA        68.9040   -0.8200   77.9800 C.3    79  THR79       0.1897
     64  C         68.4150   -2.2030   77.5230 C.2    79  THR79       0.2313
     65  O         67.4870   -2.7640   78.1160 O.2    79  THR79      -0.2863
     66  CB        68.0810    0.2940   77.3010 C.3    79  THR79       0.1794
     67  OG1       68.5730    0.5360   75.9790 O.3    79  THR79      -0.2208
     68  CG2       68.2780    1.6270   78.0110 C.3    79  THR79       0.0378
     69  N         69.4670   -4.6890   80.2600 N.3    82  ALA82      -0.1245
     70  CA        68.5510   -4.5500   81.3890 C.3    82  ALA82       0.1562
     71  C         67.2680   -5.3620   81.1710 C.2    82  ALA82       0.2260
     72  O         66.8890   -6.1670   82.0240 O.2    82  ALA82      -0.2867
     73  CB        68.2310   -3.0590   81.6390 C.3    82  ALA82       0.0290
     74  N         60.2910    3.2510   82.5620 N.3   100  TYR100     -0.1241
     75  CA        61.4990    3.7550   83.2220 C.3   100  TYR100      0.1605
     76  C         61.1380    4.4310   84.5270 C.2   100  TYR100      0.2264
     77  O         60.2510    5.2870   84.5660 O.2   100  TYR100     -0.2867
     78  CB        62.2430    4.7440   82.3210 C.3   100  TYR100      0.0534
     79  CG        62.5580    4.1300   80.9960 C.ar  100  TYR100     -0.0201
     80  CD1       63.7860    3.5650   80.7560 C.ar  100  TYR100     -0.0009
     81  CD2       61.5850    4.0400   80.0130 C.ar  100  TYR100     -0.0009
     82  CE1       64.0650    2.9480   79.5550 C.ar  100  TYR100      0.0417
     83  CE2       61.8490    3.4400   78.8180 C.ar  100  TYR100      0.0417
     84  CZ        63.1010    2.8930   78.5890 C.ar  100  TYR100      0.1957
     85  OH        63.3880    2.2630   77.4060 O.3   100  TYR100     -0.2866
     86  N         62.6300    6.6640   86.0980 N.3   102  ASP102     -0.1239
     87  CA        62.9180    8.1060   86.0870 C.3   102  ASP102      0.1674
     88  C         61.9880    8.9120   85.1760 C.2   102  ASP102      0.2266
     89  O         62.2140   10.1070   84.9650 O.2   102  ASP102     -0.2867
     90  CB        64.3970    8.3770   85.7410 C.3   102  ASP102      0.1410
     91  CG        64.7860    7.9470   84.3260 C.2   102  ASP102      0.3668
     92  OD1       63.9280    7.4760   83.5500 O.co2 102  ASP102     -0.2456
     93  OD2       65.9570    8.0640   83.8990 O.co2 102  ASP102     -0.2456
     94  N         70.3710   14.6490   72.7450 N.3   135  GLY135     -0.1210
     95  CA        70.4440   13.6110   73.7660 C.3   135  GLY135      0.1956
     96  C         69.5850   12.3810   73.5020 C.2   135  GLY135      0.2612
     97  O         69.8890   11.2950   73.9980 O.2   135  GLY135     -0.2717
     98  N         68.5260   12.5430   72.7140 N.am  136  TYR136     -0.1962
     99  CA        67.5200   11.4970   72.5210 C.3   136  TYR136      0.1771
    100  C         67.7000   10.7360   71.2120 C.2   136  TYR136      0.2620
    101  O         68.2030   11.2840   70.2310 O.2   136  TYR136     -0.2715
    102  CB        66.1290   12.1210   72.5610 C.3   136  TYR136      0.0574
    103  CG        65.8500   12.8790   73.8380 C.ar  136  TYR136     -0.0198
    104  CD1       65.8660   14.2690   73.8670 C.ar  136  TYR136     -0.0009
    105  CD2       65.5890   12.2050   75.0220 C.ar  136  TYR136     -0.0009
    106  CE1       65.6180   14.9700   75.0360 C.ar  136  TYR136      0.0417
    107  CE2       65.3410   12.8950   76.2010 C.ar  136  TYR136      0.0417
    108  CZ        65.3520   14.2780   76.2010 C.ar  136  TYR136      0.1957
    109  OH        65.1050   14.9700   77.3680 O.3   136  TYR136     -0.2866
    110  N         67.2880    9.4660   71.2030 N.am  137  GLY137     -0.1954
    111  CA        67.3000    8.6630   69.9970 C.3   137  GLY137      0.1869
    112  C         66.3660    9.2420   68.9490 C.2   137  GLY137      0.2309
    113  O         65.2130    9.5420   69.2390 O.2   137  GLY137     -0.2863
    114  N         70.7170    6.6530   68.0110 N.3   151  GLU151     -0.1245
    115  CA        71.0820    7.4140   69.1940 C.3   151  GLU151      0.1567
    116  C         71.9120    8.6400   68.8200 C.2   151  GLU151      0.2260
    117  O         72.5390    8.6810   67.7500 O.2   151  GLU151     -0.2867
    118  CB        71.8510    6.5250   70.1690 C.3   151  GLU151      0.0388
    119  CG        71.0110    5.3930   70.7410 C.3   151  GLU151      0.1160
    120  CD        69.8360    5.9020   71.5560 C.2   151  GLU151      0.3649
    121  OE1       68.6910    5.7720   71.0850 O.co2 151  GLU151     -0.2457
    122  OE2       70.0610    6.4470   72.6570 O.co2 151  GLU151     -0.2457
    123  N         62.6450    9.2220   70.5000 N.3   166  ASN166     -0.1225
    124  CA        62.1980    8.0500   71.2320 C.3   166  ASN166      0.1785
    125  C         61.9960    8.4340   72.6910 C.2   166  ASN166      0.2598
    126  O         62.8490    9.0750   73.2680 O.2   166  ASN166     -0.2718
    127  CB        63.2950    6.9850   71.1070 C.3   166  ASN166      0.1169
    128  CG        62.9560    5.6830   71.7910 C.2   166  ASN166      0.2627
    129  OD1       63.8490    4.9900   72.2870 O.2   166  ASN166     -0.2716
    130  ND2       61.6880    5.3290   71.8080 N.am  166  ASN166     -0.0877
    131  N         60.8700    8.0480   73.2780 N.am  167  THR167     -0.1939
    132  CA        60.6550    8.2230   74.7150 C.3   167  THR167      0.2028
    133  C         61.2520    7.0640   75.5220 C.2   167  THR167      0.2642
    134  O         61.3390    7.1480   76.7410 O.2   167  THR167     -0.2714
    135  CB        59.1670    8.2850   75.0650 C.3   167  THR167      0.1808
    136  OG1       58.5420    7.0190   74.7660 O.3   167  THR167     -0.2208
    137  CG2       58.4190    9.3440   74.2360 C.3   167  THR167      0.0379
    138  N         61.5940    5.9780   74.8380 N.am  168  GLY168     -0.1954
    139  CA        62.0870    4.7590   75.4470 C.3   168  GLY168      0.1869
    140  C         61.0130    3.7090   75.6550 C.2   168  GLY168      0.2309
    141  O         61.3230    2.5240   75.8690 O.2   168  GLY168     -0.2863
    142  N         78.7650    3.9180   72.1410 N.3   190  GLN190     -0.1245
    143  CA        78.7790    3.7960   73.6010 C.3   190  GLN190      0.1566
    144  C         79.2340    2.4110   74.0770 C.2   190  GLN190      0.2260
    145  O         79.4850    2.2210   75.2600 O.2   190  GLN190     -0.2867
    146  CB        77.3940    4.1460   74.1730 C.3   190  GLN190      0.0367
    147  CG        77.0490    5.6320   74.0320 C.3   190  GLN190      0.0905
    148  CD        75.6250    5.9700   74.4500 C.2   190  GLN190      0.2608
    149  OE1       74.6820    5.8520   73.6520 O.2   190  GLN190     -0.2717
    150  NE2       75.4650    6.4030   75.6930 N.am  190  GLN190     -0.0878
    151  N         77.3530   -0.2160   74.1360 N.3   192  GLU192     -0.1245
    152  CA        76.2300   -0.7170   74.9290 C.3   192  GLU192      0.1567
    153  C         75.2770   -1.5430   74.0770 C.2   192  GLU192      0.2260
    154  O         75.2000   -1.3600   72.8560 O.2   192  GLU192     -0.2867
    155  CB        75.4730    0.4620   75.5570 C.3   192  GLU192      0.0388
    156  CG        76.2370    1.1620   76.6710 C.3   192  GLU192      0.1160
    157  CD        75.5310    2.3960   77.2100 C.2   192  GLU192      0.3649
    158  OE1       74.4270    2.7320   76.7280 O.co2 192  GLU192     -0.2457
    159  OE2       76.0910    3.0350   78.1300 O.co2 192  GLU192     -0.2457
    160  N         71.8660   -1.6850   73.0190 N.3   194  TYR194     -0.1227
    161  CA        70.7580   -0.7290   72.9090 C.3   194  TYR194      0.1736
    162  C         69.4150   -1.4360   72.7340 C.2   194  TYR194      0.2595
    163  O         69.2380   -2.2140   71.7960 O.2   194  TYR194     -0.2718
    164  CB        70.9360    0.1450   71.6680 C.3   194  TYR194      0.0548
    165  CG        72.0580    1.1590   71.6420 C.ar  194  TYR194     -0.0200
    166  CD1       72.7010    1.5950   72.7960 C.ar  194  TYR194     -0.0009
    167  CD2       72.4430    1.7260   70.4300 C.ar  194  TYR194     -0.0009
    168  CE1       73.7100    2.5600   72.7340 C.ar  194  TYR194      0.0417
    169  CE2       73.4410    2.6790   70.3590 C.ar  194  TYR194      0.0417
    170  CZ        74.0740    3.0920   71.5070 C.ar  194  TYR194      0.1957
    171  OH        75.0590    4.0490   71.4160 O.3   194  TYR194     -0.2866
    172  N         68.4560   -1.1550   73.6140 N.am  195  LEU195     -0.1966
    173  CA        67.0850   -1.6280   73.4100 C.3   195  LEU195      0.1728
    174  C         66.5060   -1.0920   72.1010 C.2   195  LEU195      0.2616
    175  O         65.6490   -1.7290   71.5010 O.2   195  LEU195     -0.2715
    176  CB        66.1800   -1.2150   74.5710 C.3   195  LEU195      0.0311
    177  CG        64.7550   -1.7740   74.5580 C.3   195  LEU195      0.0022
    178  CD1       64.7460   -3.2790   74.7380 C.3   195  LEU195      0.0001
    179  CD2       63.9020   -1.0950   75.6270 C.3   195  LEU195      0.0001
    180  N         66.9850    0.0770   71.6830 N.am  196  THR196     -0.1951
    181  CA        66.5130    0.7500   70.4720 C.3   196  THR196      0.1897
    182  C         66.8090   -0.0090   69.1800 C.2   196  THR196      0.2313
    183  O         66.1750    0.2430   68.1570 O.2   196  THR196     -0.2863
    184  CB        67.1230    2.1610   70.3790 C.3   196  THR196      0.1794
    185  OG1       68.5390    2.1030   70.5960 O.3   196  THR196     -0.2208
    186  CG2       66.5880    3.0530   71.5010 C.3   196  THR196      0.0378
    187  N         61.6230   12.4100   81.2390 N.3   222  GLY222     -0.1225
    188  CA        62.3840   11.7850   82.3030 C.3   222  GLY222      0.1811
    189  C         63.1200   12.8590   83.0790 C.2   222  GLY222      0.2280
    190  O         63.2060   13.9960   82.6160 O.2   222  GLY222     -0.2866
    191  N         66.7610   13.6210   84.6440 N.3   224  ASN224     -0.1240
    192  CA        68.1870   13.3250   84.7940 C.3   224  ASN224      0.1653
    193  C         68.8590   14.1770   85.8770 C.2   224  ASN224      0.2266
    194  O         69.9250   13.8270   86.3920 O.2   224  ASN224     -0.2867
    195  CB        68.9150   13.5380   83.4620 C.3   224  ASN224      0.1155
    196  CG        68.5310   12.5100   82.4050 C.2   224  ASN224      0.2627
    197  OD1       68.2160   11.3640   82.7220 O.2   224  ASN224     -0.2716
    198  ND2       68.5910   12.9160   81.1330 N.am  224  ASN224     -0.0877
@<TRIPOS>BOND
     1   117   116    2
     2   114   115    1
     3   183   182    2
     4   116   115    1
     5   112   113    2
     6   112   111    1
     7   182   181    1
     8   115   118    1
     9   111   110    1
    10   118   119    1
    11   101   100    2
    12   169   167   ar
    13   169   170   ar
    14   184   181    1
    15   184   185    1
    16   184   186    1
    17   167   165   ar
    18   181   180    1
    19   123   124    1
    20   119   120    1
    21   121   120   ar
    22   127   124    1
    23   127   128    1
    24   110   100   am
    25   100    99    1
    26   124   125    1
    27   171   170    1
    28   175   174    2
    29   170   168   ar
    30   120   122   ar
    31   165   164    1
    32   165   166   ar
    33   164   161    1
    34   180   174   am
    35   128   130   am
    36   128   129    2
    37   163   162    2
    38   174   173    1
    39   142   143    1
    40    99   102    1
    41    99    98    1
    42   102   103    1
    43   125   126    2
    44   125   131   am
    45    98    96   am
    46   168   166   ar
    47   162   161    1
    48   162   172   am
    49    94    95    1
    50   154   153    2
    51   161   160    1
    52   131   132    1
    53   173   172    1
    54   173   176    1
    55    96    95    1
    56    96    97    2
    57   143   144    1
    58   143   146    1
    59   149   148    2
    60   103   104   ar
    61   103   105   ar
    62   104   106   ar
    63   147   146    1
    64   147   148    1
    65   144   145    2
    66   153   152    1
    67   151   152    1
    68   137   135    1
    69   148   150   am
    70   177   176    1
    71   177   178    1
    72   177   179    1
    73   132   135    1
    74   132   133    1
    75   136   135    1
    76   138   139    1
    77   138   133   am
    78   152   155    1
    79   105   107   ar
    80   106   108   ar
    81   139   140    1
    82   133   134    2
    83   155   156    1
    84   140   141    2
    85    67    66    1
    86   107   108   ar
    87   108   109    1
    88   156   157    1
    89   158   157   ar
    90   157   159   ar
    91    66    63    1
    92    66    68    1
    93    85    84    1
    94    64    63    1
    95    64    65    2
    96    62    63    1
    97    62    60   am
    98    59    60    1
    99    59    58    1
   100    60    61    2
   101    84    83   ar
   102    84    82   ar
   103    83    81   ar
   104    82    80   ar
   105    81    79   ar
   106    69    70    1
   107     8     6    1
   108    80    79   ar
   109    79    78    1
   110   198   196   am
   111    71    70    1
   112    71    72    2
   113   187   188    1
   114     7     6    1
   115    70    73    1
   116    52    51    2
   117     6     5    1
   118    51    50    1
   119   188   189    1
   120    78    75    1
   121   196   197    2
   122   196   195    1
   123    74    75    1
   124   190   189    2
   125    48    46   am
   126     5     2    1
   127    75    76    1
   128   195   192    1
   129    50    53    1
   130    50    49    1
   131    92    91   ar
   132    93    91   ar
   133    46    47    2
   134    46    45    1
   135    53    54    1
   136     1     2    1
   137     2     3    1
   138    31    30    1
   139    91    90    1
   140    76    77    2
   141   191   192    1
   142    37    39    1
   143    37    36    1
   144   192   193    1
   145    45    44    1
   146    89    88    2
   147    88    87    1
   148     4     3    2
   149    54    55    1
   150     3     9   am
   151    38    36    1
   152    36    33    1
   153    30    29    1
   154    90    87    1
   155   193   194    2
   156    87    86    1
   157    44    41    1
   158     9    10    1
   159    55    57   am
   160    55    56    2
   161    29    28    1
   162    41    42    1
   163    41    40    1
   164    33    32    1
   165    33    34    1
   166    18    15    1
   167    20    19    1
   168    20    21    1
   169    14    15    1
   170    14    11   am
   171    10    11    1
   172    10    13    1
   173    19    16   am
   174    42    43    2
   175    35    34    2
   176    15    16    1
   177    16    17    2
   178    28    27    1
   179    11    12    2
   180    21    22    2
   181    27    24    1
   182    24    25    1
   183    24    23    1
   184    25    26    2
