@<TRIPOS>MOLECULE
tmp/2v0jA00.pdb
 129 119 0 0 0
SMALL
GASTEIGER

@<TRIPOS>ATOM
      1  N         85.5590   40.6150   32.7360 N.3     8  LEU8       -0.1231
      2  CA        86.1420   39.2750   32.7600 C.3     8  LEU8        0.1693
      3  C         85.4530   38.4230   31.7070 C.2     8  LEU8        0.2592
      4  O         84.2450   38.1770   31.7890 O.2     8  LEU8       -0.2718
      5  CB        86.0000   38.6310   34.1400 C.3     8  LEU8        0.0284
      6  CG        87.0970   39.0050   35.1380 C.3     8  LEU8        0.0019
      7  CD1       87.0080   40.4500   35.5320 C.3     8  LEU8        0.0001
      8  CD2       86.9890   38.1330   36.3560 C.3     8  LEU8        0.0001
      9  N         86.2250   37.9930   30.7110 N.am    9  ALA9       -0.1966
     10  CA        85.6390   37.3480   29.5240 C.3     9  ALA9        0.1728
     11  C         86.4470   36.1630   28.9860 C.2     9  ALA9        0.2616
     12  O         86.2710   35.7550   27.8270 O.2     9  ALA9       -0.2715
     13  CB        85.4480   38.3950   28.4500 C.3     9  ALA9        0.0334
     14  N         87.2970   35.5890   29.8410 N.am   10  ALA10      -0.1963
     15  CA        88.3010   34.5900   29.4250 C.3    10  ALA10       0.1728
     16  C         87.8140   33.1420   29.3960 C.2    10  ALA10       0.2616
     17  O         88.5480   32.2510   28.9510 O.2    10  ALA10      -0.2715
     18  CB        89.5300   34.6880   30.3160 C.3    10  ALA10       0.0334
     19  N         86.5940   32.8990   29.8670 N.am   11  GLY11      -0.1955
     20  CA        86.1180   31.5400   30.0970 C.3    11  GLY11       0.1869
     21  C         85.8370   30.7180   28.8500 C.2    11  GLY11       0.2309
     22  O         85.3710   31.2470   27.8350 O.2    11  GLY11      -0.2863
     23  N         82.7620   31.3220   26.0330 N.3    22  LYS22      -0.1231
     24  CA        81.5450   31.4760   26.8410 C.3    22  LYS22       0.1693
     25  C         80.7660   32.7620   26.5660 C.2    22  LYS22       0.2591
     26  O         79.5370   32.7510   26.5010 O.2    22  LYS22      -0.2718
     27  CB        81.9230   31.4220   28.3170 C.3    22  LYS22       0.0285
     28  CG        80.7620   31.2560   29.2820 C.3    22  LYS22       0.0035
     29  CD        81.2700   31.2460   30.7020 C.3    22  LYS22       0.0206
     30  CE        80.1690   30.8290   31.6620 C.3    22  LYS22       0.1093
     31  NZ        80.5890   31.0060   33.0790 N.3    22  LYS22      -0.1314
     32  N         81.4700   33.8740   26.4060 N.am   23  VAL23      -0.1980
     33  CA        80.7850   35.1730   26.4120 C.3    23  VAL23       0.1595
     34  C         80.3080   35.6280   25.0370 C.2    23  VAL23       0.2287
     35  O         79.7090   36.6840   24.9360 O.2    23  VAL23      -0.2864
     36  CB        81.6440   36.2890   27.0660 C.3    23  VAL23       0.0276
     37  CG1       82.0960   35.8630   28.4620 C.3    23  VAL23       0.0022
     38  CG2       82.8300   36.6560   26.1860 C.3    23  VAL23       0.0022
     39  N         89.3530   41.3540   29.5930 N.3    51  ILE51      -0.1245
     40  CA        90.2140   40.2340   29.9310 C.3    51  ILE51       0.1561
     41  C         89.6960   39.0500   29.1240 C.2    51  ILE51       0.2260
     42  O         88.5740   38.6020   29.3240 O.2    51  ILE51      -0.2867
     43  CB        90.2160   39.8990   31.4510 C.3    51  ILE51       0.0252
     44  CG1       90.3180   41.1650   32.3270 C.3    51  ILE51       0.0019
     45  CG2       91.3330   38.9120   31.7700 C.3    51  ILE51       0.0019
     46  CD1       91.5420   42.0110   32.1050 C.3    51  ILE51       0.0001
     47  N         94.8190   37.0090   28.9470 N.3    73  GLN73      -0.1245
     48  CA        95.1870   36.2200   30.1110 C.3    73  GLN73       0.1566
     49  C         95.5880   34.7920   29.6930 C.2    73  GLN73       0.2260
     50  O         94.7420   34.0070   29.2550 O.2    73  GLN73      -0.2867
     51  CB        93.9890   36.1720   31.0620 C.3    73  GLN73       0.0367
     52  CG        94.2490   35.4590   32.3720 C.3    73  GLN73       0.0905
     53  CD        93.0120   35.3360   33.2240 C.2    73  GLN73       0.2608
     54  OE1       91.9300   34.9620   32.7390 O.2    73  GLN73      -0.2717
     55  NE2       93.1560   35.6310   34.5070 N.am   73  GLN73      -0.0878
     56  N         93.8710   30.9780   33.5850 N.3    76  GLN76      -0.1245
     57  CA        92.8210   31.4060   34.5030 C.3    76  GLN76       0.1566
     58  C         93.1740   30.9400   35.9060 C.2    76  GLN76       0.2260
     59  O         92.9240   29.7860   36.2670 O.2    76  GLN76      -0.2867
     60  CB        91.4580   30.8600   34.0830 C.3    76  GLN76       0.0367
     61  CG        90.9240   31.4730   32.8160 C.3    76  GLN76       0.0905
     62  CD        89.5130   31.0380   32.5320 C.2    76  GLN76       0.2608
     63  OE1       88.5490   31.7600   32.8350 O.2    76  GLN76      -0.2717
     64  NE2       89.3680   29.8370   31.9670 N.am   76  GLN76      -0.0878
     65  N         92.1420   32.6690   38.6780 N.3    78  GLY78      -0.1210
     66  CA        91.1600   33.2530   39.5960 C.3    78  GLY78       0.1956
     67  C         90.7860   34.6710   39.2120 C.2    78  GLY78       0.2612
     68  O         91.5020   35.3260   38.4760 O.2    78  GLY78      -0.2717
     69  N         89.6750   35.1560   39.7440 N.am   79  THR79      -0.1952
     70  CA        89.1600   36.4710   39.3680 C.3    79  THR79       0.1897
     71  C         90.1100   37.6130   39.7480 C.2    79  THR79       0.2313
     72  O         90.1900   38.6140   39.0390 O.2    79  THR79      -0.2863
     73  CB        87.7840   36.7160   40.0040 C.3    79  THR79       0.1794
     74  OG1       87.8190   36.3290   41.3860 O.3    79  THR79      -0.2208
     75  CG2       86.7230   35.9070   39.2870 C.3    79  THR79       0.0378
     76  N         92.8000   37.7520   37.1690 N.3    82  ALA82      -0.1245
     77  CA        92.2610   38.3180   35.9390 C.3    82  ALA82       0.1562
     78  C         92.2560   39.8480   36.0120 C.2    82  ALA82       0.2260
     79  O         92.7720   40.5260   35.1200 O.2    82  ALA82      -0.2867
     80  CB        90.8630   37.7920   35.6960 C.3    82  ALA82       0.0290
     81  N         81.3410   41.1170   34.6520 N.3   100  TYR100     -0.1241
     82  CA        81.5340   39.7760   34.1160 C.3   100  TYR100      0.1605
     83  C         80.8400   39.6670   32.7750 C.2   100  TYR100      0.2264
     84  O         79.6590   39.9840   32.6700 O.2   100  TYR100     -0.2867
     85  CB        80.9850   38.7550   35.1210 C.3   100  TYR100      0.0534
     86  CG        81.6890   38.9200   36.4400 C.ar  100  TYR100     -0.0201
     87  CD1       82.8650   38.2380   36.6990 C.ar  100  TYR100     -0.0009
     88  CD2       81.2390   39.8440   37.3850 C.ar  100  TYR100     -0.0009
     89  CE1       83.5560   38.4230   37.8890 C.ar  100  TYR100      0.0417
     90  CE2       81.9220   40.0390   38.5770 C.ar  100  TYR100      0.0417
     91  CZ        83.0810   39.3290   38.8240 C.ar  100  TYR100      0.1957
     92  OH        83.7730   39.5150   40.0030 O.3   100  TYR100     -0.2866
     93  N         79.7730   37.1970   31.1910 N.3   102  ASP102     -0.1239
     94  CA        78.6790   36.2080   31.1650 C.3   102  ASP102      0.1674
     95  C         77.4640   36.6170   32.0160 C.2   102  ASP102      0.2266
     96  O         76.5950   35.7950   32.2810 O.2   102  ASP102     -0.2867
     97  CB        79.1730   34.8080   31.5610 C.3   102  ASP102      0.1410
     98  CG        79.8280   34.7580   32.9600 C.2   102  ASP102      0.3668
     99  OD1       79.9320   35.8070   33.6340 O.co2 102  ASP102     -0.2456
    100  OD2       80.2500   33.6500   33.3790 O.co2 102  ASP102     -0.2456
    101  N         92.9400   29.2080   44.0430 N.3   192  GLU192     -0.1245
    102  CA        92.7060   30.3530   43.1550 C.3   192  GLU192      0.1567
    103  C         92.8260   31.6920   43.8800 C.2   192  GLU192      0.2260
    104  O         92.6110   31.7840   45.0930 O.2   192  GLU192     -0.2867
    105  CB        91.3220   30.2510   42.5100 C.3   192  GLU192      0.0388
    106  CG        91.2540   29.2070   41.4140 C.3   192  GLU192      0.1160
    107  CD        89.9200   29.1780   40.6980 C.2   192  GLU192      0.3649
    108  OE1       89.1260   30.1420   40.8220 O.co2 192  GLU192     -0.2457
    109  OE2       89.6750   28.1770   39.9960 O.co2 192  GLU192     -0.2457
    110  N         91.1190   34.8900   44.5000 N.3   194  TYR194     -0.1241
    111  CA        89.7410   35.3830   44.4310 C.3   194  TYR194      0.1605
    112  C         89.6520   36.8770   44.6610 C.2   194  TYR194      0.2264
    113  O         90.1680   37.3960   45.6550 O.2   194  TYR194     -0.2867
    114  CB        88.8510   34.7010   45.4790 C.3   194  TYR194      0.0534
    115  CG        88.5400   33.2610   45.2020 C.ar  194  TYR194     -0.0201
    116  CD1       89.2690   32.2470   45.8110 C.ar  194  TYR194     -0.0009
    117  CD2       87.4990   32.9030   44.3500 C.ar  194  TYR194     -0.0009
    118  CE1       88.9800   30.9170   45.5740 C.ar  194  TYR194      0.0417
    119  CE2       87.2050   31.5650   44.1000 C.ar  194  TYR194      0.0417
    120  CZ        87.9530   30.5800   44.7210 C.ar  194  TYR194      0.1957
    121  OH        87.6780   29.2530   44.5030 O.3   194  TYR194     -0.2866
    122  N         75.9290   29.8680   32.5450 N.3   224  ASN224     -0.1240
    123  CA        76.9670   28.8490   32.3850 C.3   224  ASN224      0.1653
    124  C         76.5980   27.8020   31.3330 C.2   224  ASN224      0.2266
    125  O         77.4450   27.0270   30.8930 O.2   224  ASN224     -0.2867
    126  CB        77.2100   28.1390   33.7190 C.3   224  ASN224      0.1155
    127  CG        77.8200   29.0490   34.7660 C.2   224  ASN224      0.2627
    128  OD1       78.5710   29.9740   34.4440 O.2   224  ASN224     -0.2716
    129  ND2       77.5050   28.7930   36.0270 N.am  224  ASN224     -0.0877
@<TRIPOS>BOND
     1    35    34    2
     2    34    33    1
     3    23    24    1
     4    38    36    1
     5    32    33    1
     6    32    25   am
     7    33    36    1
     8    26    25    2
     9    25    24    1
    10    24    27    1
    11    36    37    1
    12    12    11    2
    13    22    21    2
    14    27    28    1
    15    13    10    1
    16    21    20    1
    17    47    48    1
    18    17    16    2
    19    11    10    1
    20    11    14   am
    21    41    42    2
    22    41    40    1
    23    50    49    2
    24    28    29    1
    25    16    15    1
    26    16    19   am
    27    15    14    1
    28    15    18    1
    29    10     9    1
    30    39    40    1
    31    49    48    1
    32    19    20    1
    33    40    43    1
    34    48    51    1
    35    29    30    1
    36     9     3   am
    37   125   124    2
    38    51    52    1
    39    94    93    1
    40    94    97    1
    41    94    95    1
    42   124   123    1
    43    43    45    1
    44    43    44    1
    45    97    98    1
    46    30    31    1
    47     3     4    2
    48     3     2    1
    49    64    62   am
    50    95    96    2
    51    46    44    1
    52    52    53    1
    53   123   122    1
    54   123   126    1
    55    62    61    1
    56    62    63    2
    57    84    83    2
    58     1     2    1
    59    54    53    2
    60     2     5    1
    61    83    82    1
    62    61    60    1
    63    98   100   ar
    64    98    99   ar
    65    53    55   am
    66    56    57    1
    67   126   127    1
    68    60    57    1
    69    82    81    1
    70    82    85    1
    71     5     6    1
    72   128   127    2
    73    57    58    1
    74   127   129   am
    75    79    78    2
    76    85    86    1
    77     6     7    1
    78     6     8    1
    79    80    77    1
    80    58    59    2
    81    77    78    1
    82    77    76    1
    83    86    87   ar
    84    86    88   ar
    85    87    89   ar
    86    88    90   ar
    87    89    91   ar
    88    68    67    2
    89    90    91   ar
    90    65    66    1
    91    91    92    1
    92    72    71    2
    93    67    66    1
    94    67    69   am
    95    75    73    1
    96    70    69    1
    97    70    71    1
    98    70    73    1
    99   109   107   ar
   100    73    74    1
   101   107   108   ar
   102   107   106    1
   103   106   105    1
   104   105   102    1
   105   102   103    1
   106   102   101    1
   107   103   104    2
   108   119   117   ar
   109   119   120   ar
   110   117   115   ar
   111   111   110    1
   112   111   112    1
   113   111   114    1
   114   121   120    1
   115   112   113    2
   116   120   118   ar
   117   115   114    1
   118   115   116   ar
   119   118   116   ar
