@<TRIPOS>MOLECULE
tmp/2v0kA00.pdb
 140 129 0 0 0
SMALL
GASTEIGER

@<TRIPOS>ATOM
      1  N         85.5070   40.5920   32.7340 N.3     8  LEU8       -0.1231
      2  CA        86.0580   39.2390   32.7230 C.3     8  LEU8        0.1693
      3  C         85.3450   38.3850   31.6930 C.2     8  LEU8        0.2592
      4  O         84.1330   38.1830   31.7660 O.2     8  LEU8       -0.2718
      5  CB        85.9220   38.5820   34.1010 C.3     8  LEU8        0.0284
      6  CG        86.9760   38.9630   35.1420 C.3     8  LEU8        0.0019
      7  CD1       87.0480   40.4600   35.3640 C.3     8  LEU8        0.0001
      8  CD2       86.6720   38.2840   36.4450 C.3     8  LEU8        0.0001
      9  N         86.1130   37.8510   30.7530 N.am    9  ALA9       -0.1966
     10  CA        85.5410   37.2310   29.5670 C.3     9  ALA9        0.1728
     11  C         86.4190   36.1190   28.9940 C.2     9  ALA9        0.2616
     12  O         86.3490   35.8190   27.7970 O.2     9  ALA9       -0.2715
     13  CB        85.3160   38.3120   28.5120 C.3     9  ALA9        0.0334
     14  N         87.2230   35.4990   29.8510 N.am   10  ALA10      -0.1963
     15  CA        88.2310   34.5300   29.4220 C.3    10  ALA10       0.1728
     16  C         87.7540   33.0780   29.4480 C.2    10  ALA10       0.2616
     17  O         88.4820   32.1810   29.0280 O.2    10  ALA10      -0.2715
     18  CB        89.4820   34.6700   30.2870 C.3    10  ALA10       0.0334
     19  N         86.5480   32.8450   29.9480 N.am   11  GLY11      -0.1955
     20  CA        86.0760   31.4900   30.1930 C.3    11  GLY11       0.1869
     21  C         85.7560   30.6810   28.9480 C.2    11  GLY11       0.2309
     22  O         85.2630   31.2110   27.9510 O.2    11  GLY11      -0.2863
     23  N         80.1610   23.9410   29.5570 N.3    15  ARG15      -0.1245
     24  CA        78.8050   23.3940   29.6420 C.3    15  ARG15       0.1563
     25  C         77.8540   23.9680   28.5830 C.2    15  ARG15       0.2260
     26  O         76.6700   23.6260   28.5610 O.2    15  ARG15      -0.2867
     27  CB        78.2260   23.5980   31.0490 C.3    15  ARG15       0.0307
     28  CG        78.5980   22.5010   32.0450 C.3    15  ARG15       0.0489
     29  CD        79.3590   23.0040   33.2710 C.3    15  ARG15       0.2205
     30  NE        78.4740   23.5530   34.3050 N.pl3  15  ARG15      -0.0865
     31  CZ        78.7920   24.5450   35.1430 C.cat  15  ARG15       0.5346
     32  NH1       77.9050   24.9570   36.0430 N.pl3  15  ARG15       0.1354
     33  NH2       79.9860   25.1260   35.0980 N.pl3  15  ARG15       0.1354
     34  N         82.7190   31.2070   26.0830 N.3    22  LYS22      -0.1231
     35  CA        81.5120   31.4220   26.8840 C.3    22  LYS22       0.1693
     36  C         80.7310   32.7080   26.5780 C.2    22  LYS22       0.2591
     37  O         79.5070   32.6730   26.4250 O.2    22  LYS22      -0.2718
     38  CB        81.8970   31.4110   28.3610 C.3    22  LYS22       0.0285
     39  CG        80.7470   31.2490   29.3240 C.3    22  LYS22       0.0035
     40  CD        81.2730   31.2250   30.7510 C.3    22  LYS22       0.0206
     41  CE        80.3050   30.5170   31.6870 C.3    22  LYS22       0.1093
     42  NZ        80.3340   31.0710   33.0630 N.3    22  LYS22      -0.1314
     43  N         81.4280   33.8380   26.4930 N.am   23  VAL23      -0.1980
     44  CA        80.7590   35.1470   26.4500 C.3    23  VAL23       0.1595
     45  C         80.3040   35.6030   25.0630 C.2    23  VAL23       0.2287
     46  O         79.7050   36.6660   24.9370 O.2    23  VAL23      -0.2864
     47  CB        81.6340   36.2660   27.0860 C.3    23  VAL23       0.0276
     48  CG1       82.0710   35.8750   28.5000 C.3    23  VAL23       0.0022
     49  CG2       82.8400   36.5930   26.2220 C.3    23  VAL23       0.0022
     50  N         89.3150   41.2840   29.6780 N.3    51  ILE51      -0.1245
     51  CA        90.1400   40.1250   29.9910 C.3    51  ILE51       0.1561
     52  C         89.6300   38.9420   29.1940 C.2    51  ILE51       0.2260
     53  O         88.5440   38.4540   29.4390 O.2    51  ILE51      -0.2867
     54  CB        90.1200   39.7880   31.5020 C.3    51  ILE51       0.0252
     55  CG1       90.2970   41.0440   32.3630 C.3    51  ILE51       0.0019
     56  CG2       91.2040   38.7590   31.8190 C.3    51  ILE51       0.0019
     57  CD1       91.4640   41.9140   31.9630 C.3    51  ILE51       0.0001
     58  N         94.7500   36.9220   29.0590 N.3    73  GLN73      -0.1245
     59  CA        95.1200   36.1700   30.2490 C.3    73  GLN73       0.1566
     60  C         95.5020   34.7430   29.8430 C.2    73  GLN73       0.2260
     61  O         94.6490   33.9650   29.4060 O.2    73  GLN73      -0.2867
     62  CB        93.9370   36.1440   31.2260 C.3    73  GLN73       0.0367
     63  CG        94.2250   35.4660   32.5570 C.3    73  GLN73       0.0905
     64  CD        92.9800   35.2270   33.3890 C.2    73  GLN73       0.2608
     65  OE1       91.9290   34.8500   32.8610 O.2    73  GLN73      -0.2717
     66  NE2       93.0970   35.4210   34.6930 N.am   73  GLN73      -0.0878
     67  N         93.9450   30.9130   33.6850 N.3    76  GLN76      -0.1245
     68  CA        92.8200   31.2800   34.5350 C.3    76  GLN76       0.1566
     69  C         93.0980   30.8580   35.9750 C.2    76  GLN76       0.2260
     70  O         92.7360   29.7560   36.3980 O.2    76  GLN76      -0.2867
     71  CB        91.5270   30.6300   34.0320 C.3    76  GLN76       0.0367
     72  CG        90.8900   31.3750   32.8500 C.3    76  GLN76       0.0905
     73  CD        91.8290   31.5200   31.6500 C.2    76  GLN76       0.2608
     74  OE1       92.1360   30.5350   30.9790 O.2    76  GLN76      -0.2717
     75  NE2       92.2720   32.7500   31.3740 N.am   76  GLN76      -0.0878
     76  N         92.1060   32.6740   38.6490 N.3    78  GLY78      -0.1210
     77  CA        91.1150   33.2640   39.5330 C.3    78  GLY78       0.1956
     78  C         90.7310   34.6890   39.1720 C.2    78  GLY78       0.2612
     79  O         91.4400   35.3810   38.4430 O.2    78  GLY78      -0.2717
     80  N         89.6060   35.1440   39.7030 N.am   79  THR79      -0.1952
     81  CA        89.1070   36.4630   39.3530 C.3    79  THR79       0.1897
     82  C         90.0520   37.6000   39.7470 C.2    79  THR79       0.2313
     83  O         90.1020   38.6090   39.0500 O.2    79  THR79      -0.2863
     84  CB        87.7310   36.6940   39.9720 C.3    79  THR79       0.1794
     85  OG1       87.7520   36.3110   41.3530 O.3    79  THR79      -0.2208
     86  CG2       86.6840   35.7750   39.3190 C.3    79  THR79       0.0378
     87  N         92.7480   37.7070   37.2020 N.3    82  ALA82      -0.1245
     88  CA        92.1960   38.2560   35.9740 C.3    82  ALA82       0.1562
     89  C         92.2220   39.7850   36.0050 C.2    82  ALA82       0.2260
     90  O         92.7740   40.4110   35.1070 O.2    82  ALA82      -0.2867
     91  CB        90.7890   37.7410   35.7580 C.3    82  ALA82       0.0290
     92  N         81.2410   41.0970   34.7090 N.3   100  TYR100     -0.1241
     93  CA        81.4320   39.7550   34.1650 C.3   100  TYR100      0.1605
     94  C         80.7570   39.6190   32.8150 C.2   100  TYR100      0.2264
     95  O         79.5880   39.9760   32.6600 O.2   100  TYR100     -0.2867
     96  CB        80.9200   38.7260   35.1700 C.3   100  TYR100      0.0534
     97  CG        81.6210   38.9190   36.4910 C.ar  100  TYR100     -0.0201
     98  CD1       82.7730   38.2060   36.8030 C.ar  100  TYR100     -0.0009
     99  CD2       81.1850   39.8830   37.3860 C.ar  100  TYR100     -0.0009
    100  CE1       83.4410   38.4180   37.9930 C.ar  100  TYR100      0.0417
    101  CE2       81.8430   40.1010   38.5730 C.ar  100  TYR100      0.0417
    102  CZ        82.9690   39.3710   38.8760 C.ar  100  TYR100      0.1957
    103  OH        83.6220   39.6010   40.0650 O.3   100  TYR100     -0.2866
    104  N         79.7130   37.1740   31.2230 N.3   102  ASP102     -0.1239
    105  CA        78.6290   36.1990   31.1760 C.3   102  ASP102      0.1674
    106  C         77.4680   36.5660   32.0980 C.2   102  ASP102      0.2266
    107  O         76.6390   35.7150   32.4200 O.2   102  ASP102     -0.2867
    108  CB        79.1430   34.7960   31.5190 C.3   102  ASP102      0.1410
    109  CG        79.7010   34.6920   32.9340 C.2   102  ASP102      0.3668
    110  OD1       79.7910   35.7170   33.6560 O.co2 102  ASP102     -0.2456
    111  OD2       80.0950   33.6030   33.4060 O.co2 102  ASP102     -0.2456
    112  N         92.9340   29.1660   44.1600 N.3   192  GLU192     -0.1245
    113  CA        92.7060   30.2940   43.2570 C.3   192  GLU192      0.1567
    114  C         92.7950   31.6440   43.9600 C.2   192  GLU192      0.2260
    115  O         92.5620   31.7470   45.1680 O.2   192  GLU192     -0.2867
    116  CB        91.3290   30.1600   42.6000 C.3   192  GLU192      0.0388
    117  CG        91.3410   29.2780   41.3650 C.3   192  GLU192      0.1160
    118  CD        89.9820   29.1710   40.6930 C.2   192  GLU192      0.3649
    119  OE1       89.0700   29.9630   41.0260 O.co2 192  GLU192     -0.2457
    120  OE2       89.8330   28.2870   39.8250 O.co2 192  GLU192     -0.2457
    121  N         91.0140   34.8180   44.5700 N.3   194  TYR194     -0.1241
    122  CA        89.6510   35.3430   44.5180 C.3   194  TYR194      0.1605
    123  C         89.5880   36.8520   44.7420 C.2   194  TYR194      0.2264
    124  O         90.1530   37.3770   45.7100 O.2   194  TYR194     -0.2867
    125  CB        88.7690   34.6680   45.5720 C.3   194  TYR194      0.0534
    126  CG        88.4010   33.2330   45.2780 C.ar  194  TYR194     -0.0201
    127  CD1       89.0800   32.1840   45.8900 C.ar  194  TYR194     -0.0009
    128  CD2       87.3610   32.9230   44.4090 C.ar  194  TYR194     -0.0009
    129  CE1       88.7440   30.8660   45.6430 C.ar  194  TYR194      0.0417
    130  CE2       87.0140   31.6010   44.1490 C.ar  194  TYR194      0.0417
    131  CZ        87.7090   30.5780   44.7750 C.ar  194  TYR194      0.1957
    132  OH        87.3760   29.2670   44.5310 O.3   194  TYR194     -0.2866
    133  N         75.9380   29.8340   32.6820 N.3   224  ASN224     -0.1240
    134  CA        76.9630   28.8030   32.5660 C.3   224  ASN224      0.1653
    135  C         76.5980   27.7240   31.5570 C.2   224  ASN224      0.2266
    136  O         77.4320   26.8890   31.1980 O.2   224  ASN224     -0.2867
    137  CB        77.1860   28.1480   33.9260 C.3   224  ASN224      0.1155
    138  CG        77.8260   29.0900   34.9230 C.2   224  ASN224      0.2627
    139  OD1       78.7100   29.8750   34.5720 O.2   224  ASN224     -0.2716
    140  ND2       77.3830   29.0210   36.1690 N.am  224  ASN224     -0.0877
@<TRIPOS>BOND
     1    46    45    2
     2    45    44    1
     3    34    35    1
     4    49    47    1
     5    37    36    2
     6    44    43    1
     7    44    47    1
     8    43    36   am
     9    36    35    1
    10    35    38    1
    11    47    48    1
    12    12    11    2
    13    22    21    2
    14    38    39    1
    15    13    10    1
    16    26    25    2
    17    25    24    1
    18    21    20    1
    19    11    10    1
    20    11    14   am
    21    17    16    2
    22    58    59    1
    23    52    53    2
    24    52    51    1
    25    39    40    1
    26    61    60    2
    27    15    16    1
    28    15    14    1
    29    15    18    1
    30    16    19   am
    31    23    24    1
    32    10     9    1
    33    24    27    1
    34    50    51    1
    35    60    59    1
    36    19    20    1
    37    51    54    1
    38    59    62    1
    39    40    41    1
    40     9     3   am
    41    74    73    2
    42    27    28    1
    43   105   104    1
    44   105   108    1
    45   105   106    1
    46   136   135    2
    47    62    63    1
    48    75    73   am
    49    54    56    1
    50    54    55    1
    51   108   109    1
    52   135   134    1
    53    73    72    1
    54    41    42    1
    55     3     4    2
    56     3     2    1
    57    57    55    1
    58    28    29    1
    59   106   107    2
    60    63    64    1
    61   134   133    1
    62   134   137    1
    63    95    94    2
    64     2     1    1
    65     2     5    1
    66    94    93    1
    67    72    71    1
    68    65    64    2
    69   109   111   ar
    70   109   110   ar
    71    29    30    1
    72    64    66   am
    73    67    68    1
    74   137   138    1
    75    71    68    1
    76     5     6    1
    77    93    92    1
    78    93    96    1
    79    30    31    2
    80    68    69    1
    81   139   138    2
    82   138   140   am
    83    33    31    1
    84    90    89    2
    85     6     7    1
    86     6     8    1
    87    31    32    1
    88    96    97    1
    89    91    88    1
    90    88    89    1
    91    88    87    1
    92    69    70    2
    93    97    98   ar
    94    97    99   ar
    95    98   100   ar
    96    99   101   ar
    97   100   102   ar
    98    79    78    2
    99   101   102   ar
   100    76    77    1
   101   102   103    1
   102    83    82    2
   103    78    77    1
   104    78    80   am
   105    86    84    1
   106    81    80    1
   107    81    82    1
   108    81    84    1
   109   120   118   ar
   110    84    85    1
   111   118   119   ar
   112   118   117    1
   113   117   116    1
   114   116   113    1
   115   113   114    1
   116   113   112    1
   117   114   115    2
   118   130   128   ar
   119   130   131   ar
   120   128   126   ar
   121   122   121    1
   122   122   123    1
   123   122   125    1
   124   132   131    1
   125   123   124    2
   126   131   129   ar
   127   126   125    1
   128   126   127   ar
   129   129   127   ar
