@<TRIPOS>MOLECULE
tmp/2v0lA00.pdb
 102 93 0 0 0
SMALL
GASTEIGER

@<TRIPOS>ATOM
      1  N         85.5190   40.6340   32.8180 N.3     8  LEU8       -0.1231
      2  CA        86.1000   39.2930   32.8260 C.3     8  LEU8        0.1693
      3  C         85.3970   38.4250   31.7960 C.2     8  LEU8        0.2592
      4  O         84.1980   38.1830   31.9000 O.2     8  LEU8       -0.2718
      5  CB        85.9750   38.6530   34.2080 C.3     8  LEU8        0.0284
      6  CG        87.0850   39.0030   35.1950 C.3     8  LEU8        0.0019
      7  CD1       87.1500   40.4900   35.4260 C.3     8  LEU8        0.0001
      8  CD2       86.8710   38.2890   36.5040 C.3     8  LEU8        0.0001
      9  N         86.1580   37.9340   30.8240 N.am    9  ALA9       -0.1966
     10  CA        85.5850   37.2920   29.6480 C.3     9  ALA9        0.1728
     11  C         86.4530   36.1680   29.0930 C.2     9  ALA9        0.2616
     12  O         86.3600   35.8320   27.9120 O.2     9  ALA9       -0.2715
     13  CB        85.3560   38.3480   28.5770 C.3     9  ALA9        0.0334
     14  N         87.2750   35.5620   29.9460 N.am   10  ALA10      -0.1963
     15  CA        88.2760   34.5970   29.4900 C.3    10  ALA10       0.1728
     16  C         87.7790   33.1520   29.4690 C.2    10  ALA10       0.2616
     17  O         88.4980   32.2610   29.0190 O.2    10  ALA10      -0.2715
     18  CB        89.5300   34.6940   30.3660 C.3    10  ALA10       0.0334
     19  N         86.5670   32.9180   29.9590 N.am   11  GLY11      -0.1955
     20  CA        86.0970   31.5650   30.2170 C.3    11  GLY11       0.1869
     21  C         85.7660   30.7420   28.9810 C.2    11  GLY11       0.2309
     22  O         85.2380   31.2550   27.9890 O.2    11  GLY11      -0.2863
     23  N         82.7160   31.2530   26.1120 N.3    22  LYS22      -0.1245
     24  CA        81.5220   31.4910   26.9200 C.3    22  LYS22       0.1561
     25  C         80.7540   32.7650   26.5750 C.2    22  LYS22       0.2260
     26  O         79.5380   32.7200   26.3590 O.2    22  LYS22      -0.2867
     27  CB        81.9150   31.5330   28.3950 C.3    22  LYS22       0.0271
     28  CG        80.7690   31.3530   29.3600 C.3    22  LYS22       0.0035
     29  CD        81.2790   31.2660   30.7930 C.3    22  LYS22       0.0206
     30  CE        80.2310   30.6530   31.7030 C.3    22  LYS22       0.1093
     31  NZ        80.3490   31.0870   33.1240 N.3    22  LYS22      -0.1314
     32  N         89.3410   41.3320   29.6760 N.3    51  ILE51      -0.1245
     33  CA        90.1650   40.1790   29.9930 C.3    51  ILE51       0.1561
     34  C         89.6470   39.0010   29.1870 C.2    51  ILE51       0.2260
     35  O         88.5500   38.5150   29.4390 O.2    51  ILE51      -0.2867
     36  CB        90.0870   39.8350   31.4940 C.3    51  ILE51       0.0252
     37  CG1       90.2160   41.0900   32.3680 C.3    51  ILE51       0.0019
     38  CG2       91.1560   38.7980   31.8470 C.3    51  ILE51       0.0019
     39  CD1       91.3380   42.0120   31.9730 C.3    51  ILE51       0.0001
     40  N         94.7180   36.9720   29.1300 N.3    73  GLN73      -0.1245
     41  CA        95.0710   36.2000   30.3090 C.3    73  GLN73       0.1566
     42  C         95.3990   34.7660   29.8870 C.2    73  GLN73       0.2260
     43  O         94.5020   33.9920   29.5410 O.2    73  GLN73      -0.2867
     44  CB        93.9000   36.2140   31.2950 C.3    73  GLN73       0.0367
     45  CG        94.1650   35.4960   32.6060 C.3    73  GLN73       0.0905
     46  CD        92.9010   35.2500   33.4090 C.2    73  GLN73       0.2608
     47  OE1       91.8670   34.8750   32.8520 O.2    73  GLN73      -0.2717
     48  NE2       92.9860   35.4390   34.7210 N.am   73  GLN73      -0.0878
     49  N         93.7730   31.0420   33.6720 N.3    76  GLN76      -0.1245
     50  CA        92.7200   31.4850   34.5770 C.3    76  GLN76       0.1566
     51  C         93.0430   31.0510   36.0000 C.2    76  GLN76       0.2260
     52  O         92.6150   29.9850   36.4420 O.2    76  GLN76      -0.2867
     53  CB        91.3610   30.9160   34.1550 C.3    76  GLN76       0.0367
     54  CG        90.7840   31.5410   32.8930 C.3    76  GLN76       0.0905
     55  CD        89.3310   31.1620   32.6660 C.2    76  GLN76       0.2608
     56  OE1       88.4180   31.8240   33.1760 O.2    76  GLN76      -0.2717
     57  NE2       89.1080   30.0930   31.9030 N.am   76  GLN76      -0.0878
     58  N         92.1740   32.7210   38.7110 N.3    78  GLY78      -0.1210
     59  CA        91.2230   33.3430   39.6190 C.3    78  GLY78       0.1956
     60  C         90.8130   34.7510   39.2180 C.2    78  GLY78       0.2612
     61  O         91.5150   35.4160   38.4680 O.2    78  GLY78      -0.2717
     62  N         89.6840   35.2160   39.7440 N.am   79  THR79      -0.1952
     63  CA        89.1730   36.5310   39.3820 C.3    79  THR79       0.1897
     64  C         90.1130   37.6760   39.7760 C.2    79  THR79       0.2313
     65  O         90.1570   38.6920   39.0840 O.2    79  THR79      -0.2863
     66  CB        87.7690   36.7640   39.9790 C.3    79  THR79       0.1794
     67  OG1       87.7520   36.4100   41.3690 O.3    79  THR79      -0.2208
     68  CG2       86.7430   35.8310   39.3320 C.3    79  THR79       0.0378
     69  N         92.7990   37.8020   37.2050 N.3    82  ALA82      -0.1245
     70  CA        92.2310   38.3640   35.9890 C.3    82  ALA82       0.1562
     71  C         92.2570   39.8910   36.0500 C.2    82  ALA82       0.2260
     72  O         92.7920   40.5510   35.1620 O.2    82  ALA82      -0.2867
     73  CB        90.8090   37.8560   35.7930 C.3    82  ALA82       0.0290
     74  N         81.2620   41.1520   34.7390 N.3   100  TYR100     -0.1241
     75  CA        81.4660   39.8220   34.1780 C.3   100  TYR100      0.1605
     76  C         80.7900   39.6950   32.8180 C.2   100  TYR100      0.2264
     77  O         79.6280   40.0770   32.6440 O.2   100  TYR100     -0.2867
     78  CB        80.9840   38.7560   35.1740 C.3   100  TYR100      0.0534
     79  CG        81.7030   38.9110   36.4950 C.ar  100  TYR100     -0.0201
     80  CD1       82.8360   38.1610   36.7870 C.ar  100  TYR100     -0.0009
     81  CD2       81.2950   39.8650   37.4160 C.ar  100  TYR100     -0.0009
     82  CE1       83.5240   38.3370   37.9820 C.ar  100  TYR100      0.0417
     83  CE2       81.9740   40.0480   38.6080 C.ar  100  TYR100      0.0417
     84  CZ        83.0870   39.2850   38.8870 C.ar  100  TYR100      0.1957
     85  OH        83.7560   39.4720   40.0790 O.3   100  TYR100     -0.2866
     86  N         79.7250   37.2170   31.2090 N.3   102  ASP102     -0.1239
     87  CA        78.6140   36.2640   31.1670 C.3   102  ASP102      0.1674
     88  C         77.4330   36.6750   32.0540 C.2   102  ASP102      0.2266
     89  O         76.5580   35.8590   32.3460 O.2   102  ASP102     -0.2867
     90  CB        79.0840   34.8510   31.5430 C.3   102  ASP102      0.1410
     91  CG        79.6630   34.7610   32.9530 C.2   102  ASP102      0.3668
     92  OD1       79.8880   35.8030   33.6070 O.co2 102  ASP102     -0.2456
     93  OD2       79.9420   33.6620   33.4880 O.co2 102  ASP102     -0.2456
     94  N         92.9000   29.2920   44.1540 N.3   192  GLU192     -0.1245
     95  CA        92.6690   30.4210   43.2640 C.3   192  GLU192      0.1567
     96  C         92.8070   31.7610   43.9770 C.2   192  GLU192      0.2260
     97  O         92.5720   31.8690   45.1820 O.2   192  GLU192     -0.2867
     98  CB        91.2670   30.3160   42.6500 C.3   192  GLU192      0.0388
     99  CG        91.2260   29.5070   41.3630 C.3   192  GLU192      0.1160
    100  CD        89.8240   29.3570   40.8030 C.2   192  GLU192      0.3649
    101  OE1       89.0260   30.3210   40.8880 O.co2 192  GLU192     -0.2457
    102  OE2       89.5210   28.2670   40.2740 O.co2 192  GLU192     -0.2457
@<TRIPOS>BOND
     1    23    24    1
     2    26    25    2
     3    25    24    1
     4    24    27    1
     5    12    11    2
     6    22    21    2
     7    27    28    1
     8    13    10    1
     9    21    20    1
    10    17    16    2
    11    11    10    1
    12    11    14   am
    13    40    41    1
    14    34    35    2
    15    34    33    1
    16    28    29    1
    17    16    15    1
    18    16    19   am
    19    15    14    1
    20    15    18    1
    21    43    42    2
    22    10     9    1
    23    32    33    1
    24    42    41    1
    25    19    20    1
    26    33    36    1
    27    41    44    1
    28    29    30    1
    29     9     3   am
    30    87    86    1
    31    87    90    1
    32    87    88    1
    33    44    45    1
    34    36    38    1
    35    36    37    1
    36    90    91    1
    37    30    31    1
    38     3     4    2
    39     3     2    1
    40    57    55   am
    41    39    37    1
    42    88    89    2
    43    45    46    1
    44    77    76    2
    45    55    54    1
    46    55    56    2
    47    76    75    1
    48     1     2    1
    49     2     5    1
    50    47    46    2
    51    54    53    1
    52    91    93   ar
    53    91    92   ar
    54    46    48   am
    55    49    50    1
    56    53    50    1
    57    75    74    1
    58    75    78    1
    59     5     6    1
    60    50    51    1
    61    72    71    2
    62    78    79    1
    63     6     7    1
    64     6     8    1
    65    73    70    1
    66    70    71    1
    67    70    69    1
    68    51    52    2
    69    79    80   ar
    70    79    81   ar
    71    80    82   ar
    72    81    83   ar
    73    82    84   ar
    74    61    60    2
    75    83    84   ar
    76    58    59    1
    77    84    85    1
    78    65    64    2
    79    60    59    1
    80    60    62   am
    81    68    66    1
    82    63    62    1
    83    63    64    1
    84    63    66    1
    85    66    67    1
    86   102   100   ar
    87   100   101   ar
    88   100    99    1
    89    99    98    1
    90    98    95    1
    91    95    96    1
    92    95    94    1
    93    96    97    2
