@<TRIPOS>MOLECULE
tmp/2v0mB02.pdb
 170 161 0 0 0
SMALL
GASTEIGER

@<TRIPOS>ATOM
      1  N         12.5410   37.7410   30.7930 N.3    21  ILE21      -0.1245
      2  CA        11.7300   37.4080   31.9880 C.3    21  ILE21       0.1561
      3  C         11.7830   38.3910   33.1450 C.2    21  ILE21       0.2260
      4  O         10.9210   38.3640   34.0140 O.2    21  ILE21      -0.2867
      5  CB        12.0810   36.0350   32.6130 C.3    21  ILE21       0.0252
      6  CG1       13.5980   35.8810   32.7440 C.3    21  ILE21       0.0019
      7  CG2       11.4240   34.8890   31.8430 C.3    21  ILE21       0.0019
      8  CD1       14.0550   35.6210   34.1570 C.3    21  ILE21       0.0001
      9  N          8.9050   40.8620   33.3550 N.3    24  TYR24      -0.1241
     10  CA         7.6740   40.3700   33.9920 C.3    24  TYR24       0.1605
     11  C          7.5230   40.7960   35.4530 C.2    24  TYR24       0.2264
     12  O          6.5560   40.4170   36.1060 O.2    24  TYR24      -0.2867
     13  CB         7.5910   38.8420   33.9460 C.3    24  TYR24       0.0534
     14  CG         7.3440   38.1990   32.5990 C.ar   24  TYR24      -0.0201
     15  CD1        8.1120   37.1100   32.1880 C.ar   24  TYR24      -0.0009
     16  CD2        6.3290   38.6430   31.7530 C.ar   24  TYR24      -0.0009
     17  CE1        7.8930   36.4880   30.9690 C.ar   24  TYR24       0.0417
     18  CE2        6.1030   38.0280   30.5190 C.ar   24  TYR24       0.0417
     19  CZ         6.8900   36.9480   30.1400 C.ar   24  TYR24       0.1957
     20  OH         6.6770   36.3230   28.9330 O.3    24  TYR24      -0.2866
     21  N          2.6530   40.0990   33.6160 N.3    28  PHE28      -0.1241
     22  CA         2.3900   39.7670   32.2140 C.3    28  PHE28       0.1605
     23  C          1.6020   40.8450   31.4730 C.2    28  PHE28       0.2264
     24  O          1.8440   41.1130   30.2960 O.2    28  PHE28      -0.2867
     25  CB         1.5810   38.4660   32.1340 C.3    28  PHE28       0.0534
     26  CG         2.3880   37.2220   32.3230 C.ar   28  PHE28      -0.0203
     27  CD1        2.5340   36.6540   33.5820 C.ar   28  PHE28      -0.0042
     28  CD2        2.9760   36.5920   31.2370 C.ar   28  PHE28      -0.0042
     29  CE1        3.2800   35.4820   33.7580 C.ar   28  PHE28      -0.0003
     30  CE2        3.7200   35.4200   31.3980 C.ar   28  PHE28      -0.0003
     31  CZ         3.8720   34.8670   32.6580 C.ar   28  PHE28      -0.0000
     32  N         11.4020   34.1320   26.4670 N.3    47  ASP47      -0.1239
     33  CA        11.2820   33.6070   27.8160 C.3    47  ASP47       0.1674
     34  C         12.3850   32.5820   27.9970 C.2    47  ASP47       0.2266
     35  O         12.2770   31.4350   27.5430 O.2    47  ASP47      -0.2867
     36  CB         9.9090   32.9780   28.0290 C.3    47  ASP47       0.1410
     37  CG         8.7910   34.0020   28.0270 C.2    47  ASP47       0.3668
     38  OD1        9.0700   35.2150   28.1180 O.co2  47  ASP47      -0.2456
     39  OD2        7.6220   33.5930   27.9480 O.co2  47  ASP47      -0.2456
     40  N         -0.1940   23.7920   22.7960 N.3    76  ARG76      -0.1231
     41  CA         0.2750   24.8660   23.6420 C.3    76  ARG76       0.1694
     42  C          1.7380   24.6160   23.9540 C.2    76  ARG76       0.2591
     43  O          2.3120   23.6270   23.5040 O.2    76  ARG76      -0.2718
     44  CB        -0.5550   24.9410   24.9240 C.3    76  ARG76       0.0321
     45  CG        -2.0440   24.9410   24.6700 C.3    76  ARG76       0.0489
     46  CD        -2.8200   25.6450   25.7630 C.3    76  ARG76       0.2205
     47  NE        -4.1520   26.0490   25.3000 N.pl3  76  ARG76      -0.0865
     48  CZ        -5.2290   25.2690   25.3130 C.cat  76  ARG76       0.5346
     49  NH1       -6.3880   25.7290   24.8690 N.pl3  76  ARG76       0.1354
     50  NH2       -5.1460   24.0330   25.7770 N.pl3  76  ARG76       0.1354
     51  N          2.3280   25.5310   24.7120 N.am   77  ARG77      -0.1980
     52  CA         3.7130   25.4590   25.1620 C.3    77  ARG77       0.1597
     53  C          3.9150   24.1820   25.9420 C.2    77  ARG77       0.2287
     54  O          3.0920   23.8660   26.7970 O.2    77  ARG77      -0.2864
     55  CB         3.9650   26.6240   26.1040 C.3    77  ARG77       0.0334
     56  CG         5.2960   27.2770   25.9940 C.3    77  ARG77       0.0492
     57  CD         5.0670   28.7370   26.2090 C.3    77  ARG77       0.2205
     58  NE         6.2020   29.3960   26.8170 N.pl3  77  ARG77      -0.0865
     59  CZ         6.3960   30.7100   26.8150 C.cat  77  ARG77       0.5346
     60  NH1        7.4720   31.1940   27.4060 N.pl3  77  ARG77       0.1354
     61  NH2        5.5360   31.5370   26.2240 N.pl3  77  ARG77       0.1354
     62  N          5.0120   21.8500   28.8900 N.3    79  PHE79      -0.1241
     63  CA         4.9480   22.1650   30.3140 C.3    79  PHE79       0.1605
     64  C          5.2650   20.9310   31.1560 C.2    79  PHE79       0.2264
     65  O          4.5680   19.9160   31.0820 O.2    79  PHE79      -0.2867
     66  CB         3.5680   22.7260   30.6730 C.3    79  PHE79       0.0534
     67  CG         3.4650   23.2530   32.0800 C.ar   79  PHE79      -0.0203
     68  CD1        3.9710   24.5100   32.4080 C.ar   79  PHE79      -0.0042
     69  CD2        2.8420   22.5030   33.0730 C.ar   79  PHE79      -0.0042
     70  CE1        3.8760   25.0110   33.7150 C.ar   79  PHE79      -0.0003
     71  CE2        2.7410   22.9910   34.3840 C.ar   79  PHE79      -0.0003
     72  CZ         3.2600   24.2520   34.7020 C.ar   79  PHE79      -0.0000
     73  N          0.0920   13.6150   34.7710 N.3    85  MET85      -0.1245
     74  CA        -0.8780   14.5560   34.2280 C.3    85  MET85       0.1570
     75  C         -0.6040   14.9150   32.7640 C.2    85  MET85       0.2261
     76  O         -1.3470   15.6900   32.1680 O.2    85  MET85      -0.2867
     77  CB        -0.9400   15.8110   35.1020 C.3    85  MET85       0.0387
     78  CG        -1.5640   15.5880   36.4780 C.3    85  MET85       0.0595
     79  SD        -3.3720   15.5770   36.4810 S.3    85  MET85      -0.1393
     80  CE        -3.7420   17.1850   35.7760 C.3    85  MET85       0.0692
     81  N         -5.7510   19.5270   28.4910 N.3    90  SER90      -0.1202
     82  CA        -5.2140   20.8860   28.4680 C.3    90  SER90       0.2020
     83  C         -3.7580   20.9850   28.0180 C.2    90  SER90       0.2618
     84  O         -3.3740   21.9870   27.4160 O.2    90  SER90      -0.2717
     85  CB        -5.3880   21.5490   29.8270 C.3    90  SER90       0.2103
     86  OG        -5.1010   20.6330   30.8640 O.3    90  SER90      -0.2182
     87  N         -2.9490   19.9680   28.3160 N.am   91  ILE91      -0.1979
     88  CA        -1.5630   19.9580   27.8390 C.3    91  ILE91       0.1595
     89  C         -1.2600   18.8700   26.7840 C.2    91  ILE91       0.2287
     90  O         -0.1170   18.7130   26.3460 O.2    91  ILE91      -0.2864
     91  CB        -0.5110   19.9820   29.0060 C.3    91  ILE91       0.0276
     92  CG1       -0.2840   18.5900   29.6150 C.3    91  ILE91       0.0022
     93  CG2       -0.8630   21.0730   30.0460 C.3    91  ILE91       0.0022
     94  CD1       -0.8360   18.4190   31.0080 C.3    91  ILE91       0.0001
     95  N         -1.8070   24.8930   42.2400 N.3   182  LEU182     -0.1245
     96  CA        -0.9230   25.8180   41.5190 C.3   182  LEU182      0.1561
     97  C         -0.0270   26.6550   42.4470 C.2   182  LEU182      0.2260
     98  O          0.6200   26.1120   43.3480 O.2   182  LEU182     -0.2867
     99  CB        -1.7300   26.7200   40.5810 C.3   182  LEU182      0.0270
    100  CG        -2.1140   26.1630   39.2060 C.3   182  LEU182      0.0019
    101  CD1       -2.6630   27.2940   38.3320 C.3   182  LEU182      0.0001
    102  CD2       -0.9320   25.4690   38.5100 C.3   182  LEU182      0.0001
    103  N          2.4750   30.6150   42.6570 N.3   184  PHE184     -0.1241
    104  CA         3.7470   31.1650   42.1780 C.3   184  PHE184      0.1605
    105  C          4.3030   32.2060   43.1500 C.2   184  PHE184      0.2264
    106  O          4.4730   33.3780   42.8040 O.2   184  PHE184     -0.2867
    107  CB         3.5780   31.7790   40.7830 C.3   184  PHE184      0.0534
    108  CG         2.9610   30.8450   39.7820 C.ar  184  PHE184     -0.0203
    109  CD1        1.6050   30.9330   39.4750 C.ar  184  PHE184     -0.0042
    110  CD2        3.7310   29.8660   39.1540 C.ar  184  PHE184     -0.0042
    111  CE1        1.0250   30.0620   38.5520 C.ar  184  PHE184     -0.0003
    112  CE2        3.1650   28.9890   38.2310 C.ar  184  PHE184     -0.0003
    113  CZ         1.8130   29.0850   37.9280 C.ar  184  PHE184     -0.0000
    114  N          9.7140   27.6920   39.5700 N.3   189  PHE189     -0.1227
    115  CA         9.0430   28.0470   38.3230 C.3   189  PHE189      0.1736
    116  C          9.8360   29.0160   37.4600 C.2   189  PHE189      0.2595
    117  O          9.7300   28.9940   36.2300 O.2   189  PHE189     -0.2718
    118  CB         7.6350   28.5710   38.6000 C.3   189  PHE189      0.0547
    119  CG         6.6740   27.5010   39.0270 C.ar  189  PHE189     -0.0202
    120  CD1        6.1870   26.5760   38.1030 C.ar  189  PHE189     -0.0042
    121  CD2        6.2610   27.4060   40.3550 C.ar  189  PHE189     -0.0042
    122  CE1        5.3020   25.5740   38.4940 C.ar  189  PHE189     -0.0003
    123  CE2        5.3720   26.4070   40.7590 C.ar  189  PHE189     -0.0003
    124  CZ         4.8920   25.4880   39.8250 C.ar  189  PHE189     -0.0000
    125  N         10.6270   29.8650   38.1030 N.am  190  LEU190     -0.1980
    126  CA        11.5900   30.6780   37.3910 C.3   190  LEU190      0.1596
    127  C         12.5050   29.7770   36.5500 C.2   190  LEU190      0.2287
    128  O         12.5770   29.9360   35.3340 O.2   190  LEU190     -0.2864
    129  CB        12.3880   31.5300   38.3810 C.3   190  LEU190      0.0297
    130  CG        13.6330   32.3080   37.9380 C.3   190  LEU190      0.0022
    131  CD1       13.3530   33.2330   36.7680 C.3   190  LEU190      0.0001
    132  CD2       14.1690   33.0980   39.1200 C.3   190  LEU190      0.0001
    133  N         10.9650   27.7500   33.3960 N.3   193  THR193     -0.1218
    134  CA        10.6500   28.6280   32.2660 C.3   193  THR193      0.1862
    135  C         11.9100   29.0750   31.5420 C.2   193  THR193      0.2287
    136  O         11.9530   29.0850   30.3110 O.2   193  THR193     -0.2866
    137  CB         9.8940   29.8880   32.7400 C.3   193  THR193      0.1770
    138  OG1        8.7160   29.4980   33.4520 O.3   193  THR193     -0.2211
    139  CG2        9.4950   30.7650   31.5670 C.3   193  THR193      0.0375
    140  N          2.8580   19.7550   40.7030 N.3   210  PHE210     -0.1241
    141  CA         1.8540   19.6540   41.7630 C.3   210  PHE210      0.1605
    142  C          2.3930   18.8470   42.9510 C.2   210  PHE210      0.2264
    143  O          3.0300   17.8070   42.7460 O.2   210  PHE210     -0.2867
    144  CB         0.5660   18.9890   41.2530 C.3   210  PHE210      0.0534
    145  CG         0.2880   19.2110   39.7910 C.ar  210  PHE210     -0.0203
    146  CD1        0.6160   18.2340   38.8540 C.ar  210  PHE210     -0.0042
    147  CD2       -0.3170   20.3840   39.3500 C.ar  210  PHE210     -0.0042
    148  CE1        0.3590   18.4260   37.4960 C.ar  210  PHE210     -0.0003
    149  CE2       -0.5760   20.5830   37.9960 C.ar  210  PHE210     -0.0003
    150  CZ        -0.2390   19.5980   37.0680 C.ar  210  PHE210     -0.0000
    151  N         -8.3670   18.0320   35.8310 N.3   256  ILE256     -0.1245
    152  CA        -8.5140   19.2140   34.9880 C.3   256  ILE256      0.1561
    153  C         -9.8730   19.8800   35.1890 C.2   256  ILE256      0.2260
    154  O         -9.9520   21.0940   35.3910 O.2   256  ILE256     -0.2867
    155  CB        -8.3220   18.8810   33.4840 C.3   256  ILE256      0.0252
    156  CG1       -6.8820   18.4650   33.2070 C.3   256  ILE256      0.0019
    157  CG2       -8.7090   20.0660   32.5880 C.3   256  ILE256      0.0019
    158  CD1       -5.8300   19.4740   33.6480 C.3   256  ILE256      0.0001
    159  N          0.2920   33.3720   36.8820 N.3   436  GLY436     -0.1210
    160  CA         0.0250   32.7010   35.6080 C.3   436  GLY436      0.1956
    161  C         -1.3870   32.9010   35.0770 C.2   436  GLY436      0.2611
    162  O         -1.5870   33.0290   33.8710 O.2   436  GLY436     -0.2717
    163  N         -2.3710   32.9090   35.9730 N.am  437  LEU437     -0.1979
    164  CA        -3.7420   33.2430   35.5980 C.3   437  LEU437      0.1596
    165  C         -4.1880   34.4730   36.3680 C.2   437  LEU437      0.2287
    166  O         -3.8530   34.6350   37.5410 O.2   437  LEU437     -0.2864
    167  CB        -4.7100   32.0880   35.8750 C.3   437  LEU437      0.0297
    168  CG        -4.4280   30.6220   35.5290 C.3   437  LEU437      0.0022
    169  CD1       -5.7200   29.8400   35.7340 C.3   437  LEU437      0.0001
    170  CD2       -3.9080   30.4320   34.1180 C.3   437  LEU437      0.0001
@<TRIPOS>BOND
     1    40    41    1
     2    43    42    2
     3    41    42    1
     4    41    44    1
     5    42    51   am
     6    45    44    1
     7    45    46    1
     8    51    52    1
     9    49    48    1
    10    52    53    1
    11    52    55    1
    12    47    48    2
    13    47    46    1
    14    48    50    1
    15    53    54    2
    16    56    55    1
    17    56    57    1
    18    57    58    1
    19    61    59    1
    20    90    89    2
    21    32    33    1
    22    89    88    1
    23    59    58    2
    24    59    60    1
    25    84    83    2
    26    35    34    2
    27    33    34    1
    28    33    36    1
    29    88    87    1
    30    88    91    1
    31    39    37   ar
    32    83    87   am
    33    83    82    1
    34    37    36    1
    35    37    38   ar
    36    82    81    1
    37    82    85    1
    38    62    63    1
    39    20    19    1
    40    91    92    1
    41    91    93    1
    42    92    94    1
    43    85    86    1
    44    19    18   ar
    45    19    17   ar
    46    24    23    2
    47   136   135    2
    48    63    66    1
    49    63    64    1
    50    18    16   ar
    51    66    67    1
    52     1     2    1
    53    17    15   ar
    54    65    64    2
    55    28    30   ar
    56    28    26   ar
    57    30    31   ar
    58    23    22    1
    59   135   134    1
    60   139   137    1
    61    16    14   ar
    62     7     5    1
    63     2     5    1
    64     2     3    1
    65    67    68   ar
    66    67    69   ar
    67    25    22    1
    68    25    26    1
    69    76    75    2
    70    15    14   ar
    71    22    21    1
    72   134   137    1
    73   134   133    1
    74    26    27   ar
    75    68    70   ar
    76   157   155    1
    77    14    13    1
    78     5     6    1
    79    31    29   ar
    80   137   138    1
    81     6     8    1
    82    75    74    1
    83    69    71   ar
    84     3     4    2
    85   156   155    1
    86   156   158    1
    87     9    10    1
    88   155   152    1
    89    27    29   ar
    90    70    72   ar
    91   162   161    2
    92    13    10    1
    93    10    11    1
    94   170   168    1
    95    74    73    1
    96    74    77    1
    97    71    72   ar
    98   152   153    1
    99   152   151    1
   100   161   160    1
   101   161   163   am
   102    77    78    1
   103   153   154    2
   104   128   127    2
   105    11    12    2
   106   168   169    1
   107   168   167    1
   108   164   167    1
   109   164   163    1
   110   164   165    1
   111   160   159    1
   112    80    79    1
   113   117   116    2
   114   165   166    2
   115    78    79    1
   116   127   126    1
   117   131   130    1
   118   150   148   ar
   119   150   149   ar
   120   126   125    1
   121   126   129    1
   122   116   125   am
   123   116   115    1
   124   148   146   ar
   125   113   112   ar
   126   113   111   ar
   127   130   129    1
   128   130   132    1
   129   149   147   ar
   130   120   122   ar
   131   120   119   ar
   132   112   110   ar
   133   115   118    1
   134   115   114    1
   135   101   100    1
   136   122   124   ar
   137   102   100    1
   138   111   109   ar
   139   118   119    1
   140   146   145   ar
   141   119   121   ar
   142   110   108   ar
   143   100    99    1
   144   147   145   ar
   145   109   108   ar
   146   108   107    1
   147   145   144    1
   148   124   123   ar
   149   121   123   ar
   150    99    96    1
   151   140   141    1
   152   107   104    1
   153   144   141    1
   154    96    95    1
   155    96    97    1
   156   141   142    1
   157   104   103    1
   158   104   105    1
   159    97    98    2
   160   143   142    2
   161   106   105    2
