@<TRIPOS>MOLECULE
tmp/2v0mC02.pdb
 180 168 0 0 0
SMALL
GASTEIGER

@<TRIPOS>ATOM
      1  N         21.4910   -2.4500   29.0400 N.3    21  ILE21      -0.1245
      2  CA        22.7740   -2.2110   28.3570 C.3    21  ILE21       0.1561
      3  C         23.9390   -3.1120   28.7850 C.2    21  ILE21       0.2260
      4  O         24.8840   -3.2930   28.0150 O.2    21  ILE21      -0.2867
      5  CB        23.2100   -0.7140   28.4110 C.3    21  ILE21       0.0252
      6  CG1       23.6320   -0.3190   29.8300 C.3    21  ILE21       0.0019
      7  CG2       22.0970    0.1910   27.8750 C.3    21  ILE21       0.0019
      8  CD1       24.2290    1.0630   29.9310 C.3    21  ILE21       0.0001
      9  N         24.9020   -5.8410   26.6190 N.3    24  TYR24      -0.1241
     10  CA        25.6260   -5.5030   25.3880 C.3    24  TYR24       0.1605
     11  C         27.0780   -5.9610   25.3830 C.2    24  TYR24       0.2264
     12  O         27.7770   -5.7830   24.3890 O.2    24  TYR24      -0.2867
     13  CB        25.5770   -3.9970   25.1140 C.3    24  TYR24       0.0534
     14  CG        24.2450   -3.5000   24.6040 C.ar   24  TYR24      -0.0201
     15  CD1       23.7530   -2.2540   24.9820 C.ar   24  TYR24      -0.0009
     16  CD2       23.4800   -4.2750   23.7400 C.ar   24  TYR24      -0.0009
     17  CE1       22.5360   -1.7980   24.5120 C.ar   24  TYR24       0.0417
     18  CE2       22.2670   -3.8320   23.2680 C.ar   24  TYR24       0.0417
     19  CZ        21.7970   -2.5970   23.6540 C.ar   24  TYR24       0.1957
     20  OH        20.5830   -2.1750   23.1610 O.3    24  TYR24      -0.2866
     21  N         25.8660   -6.0210   19.9960 N.3    28  PHE28      -0.1241
     22  CA        24.4660   -5.8070   19.5990 C.3    28  PHE28       0.1605
     23  C         23.8160   -7.0110   18.9140 C.2    28  PHE28       0.2264
     24  O         22.6910   -7.3920   19.2380 O.2    28  PHE28      -0.2867
     25  CB        24.3460   -4.5880   18.6830 C.3    28  PHE28       0.0534
     26  CG        24.5960   -3.2750   19.3710 C.ar   28  PHE28      -0.0203
     27  CD1       25.6550   -2.4600   18.9760 C.ar   28  PHE28      -0.0042
     28  CD2       23.7710   -2.8420   20.4030 C.ar   28  PHE28      -0.0042
     29  CE1       25.8920   -1.2300   19.6060 C.ar   28  PHE28      -0.0003
     30  CE2       24.0010   -1.6160   21.0410 C.ar   28  PHE28      -0.0003
     31  CZ        25.0620   -0.8100   20.6380 C.ar   28  PHE28      -0.0000
     32  N         17.1860    0.6940   26.2780 N.3    47  ASP47      -0.1239
     33  CA        18.4990    1.3210   26.1780 C.3    47  ASP47       0.1674
     34  C         18.5280    2.5350   27.0830 C.2    47  ASP47       0.2266
     35  O         18.1520    3.6410   26.6770 O.2    47  ASP47      -0.2867
     36  CB        18.8320    1.6990   24.7370 C.3    47  ASP47       0.1410
     37  CG        19.3800    0.5250   23.9460 C.2    47  ASP47       0.3668
     38  OD1       19.8290   -0.4520   24.5920 O.co2  47  ASP47      -0.2456
     39  OD2       19.3670    0.5690   22.6900 O.co2  47  ASP47      -0.2456
     40  N         14.7310    8.5400   12.7840 N.3    76  ARG76      -0.1231
     41  CA        15.4820    7.6270   13.6140 C.3    76  ARG76       0.1694
     42  C         15.6030    8.2130   15.0130 C.2    76  ARG76       0.2591
     43  O         15.0910    9.2970   15.2920 O.2    76  ARG76      -0.2718
     44  CB        16.8660    7.3740   13.0090 C.3    76  ARG76       0.0321
     45  CG        16.8260    6.6420   11.6820 C.3    76  ARG76       0.0489
     46  CD        18.2040    6.5280   11.0570 C.3    76  ARG76       0.2205
     47  NE        18.1370    5.9730    9.7040 N.pl3  76  ARG76      -0.0865
     48  CZ        18.1490    6.7010    8.5920 C.cat  76  ARG76       0.5346
     49  NH1       18.0820    6.1100    7.4100 N.pl3  76  ARG76       0.1354
     50  NH2       18.2370    8.0210    8.6580 N.pl3  76  ARG76       0.1354
     51  N         16.2720    7.4580   15.8780 N.am   77  ARG77      -0.1980
     52  CA        16.5560    7.8170   17.2620 C.3    77  ARG77       0.1597
     53  C         17.2480    9.1890   17.3780 C.2    77  ARG77       0.2287
     54  O         18.1440    9.5100   16.5820 O.2    77  ARG77      -0.2864
     55  CB        17.4720    6.7410   17.8270 C.3    77  ARG77       0.0334
     56  CG        17.3140    6.4130   19.2780 C.3    77  ARG77       0.0492
     57  CD        18.5550    5.6580   19.7180 C.3    77  ARG77       0.2205
     58  NE        18.2940    4.7000   20.7890 N.pl3  77  ARG77      -0.0865
     59  CZ        18.1570    3.3870   20.6130 C.cat  77  ARG77       0.5346
     60  NH1       17.9310    2.6130   21.6610 N.pl3  77  ARG77       0.1354
     61  NH2       18.2450    2.8440   19.4030 N.pl3  77  ARG77       0.1354
     62  N         19.8910   11.8520   18.4630 N.3    79  PHE79      -0.1241
     63  CA        21.3110   11.6880   18.7500 C.3    79  PHE79       0.1605
     64  C         21.9630   13.0270   19.0670 C.2    79  PHE79       0.2264
     65  O         21.6860   14.0340   18.4140 O.2    79  PHE79      -0.2867
     66  CB        22.0120   11.0220   17.5620 C.3    79  PHE79       0.0534
     67  CG        23.4850   10.7800   17.7720 C.ar   79  PHE79      -0.0203
     68  CD1       23.9320    9.6030   18.3640 C.ar   79  PHE79      -0.0042
     69  CD2       24.4260   11.7220   17.3640 C.ar   79  PHE79      -0.0042
     70  CE1       25.2940    9.3680   18.5550 C.ar   79  PHE79      -0.0003
     71  CE2       25.7890   11.4960   17.5500 C.ar   79  PHE79      -0.0003
     72  CZ        26.2220   10.3140   18.1440 C.ar   79  PHE79      -0.0000
     73  N         25.6360   17.1540   19.3860 N.3    82  VAL82      -0.1245
     74  CA        26.0730   16.9740   18.0070 C.3    82  VAL82       0.1561
     75  C         26.5250   18.2610   17.2810 C.2    82  VAL82       0.2260
     76  O         27.1280   18.1950   16.2000 O.2    82  VAL82      -0.2867
     77  CB        24.9740   16.2080   17.2240 C.3    82  VAL82       0.0252
     78  CG1       23.9250   17.1580   16.6450 C.3    82  VAL82       0.0019
     79  CG2       25.5850   15.3020   16.1710 C.3    82  VAL82       0.0019
     80  N         26.3770   19.3360   13.2540 N.3    85  MET85      -0.1245
     81  CA        26.0180   18.1140   12.5450 C.3    85  MET85       0.1570
     82  C         24.5330   17.7590   12.6270 C.2    85  MET85       0.2261
     83  O         24.0990   16.7680   12.0370 O.2    85  MET85      -0.2867
     84  CB        26.8830   16.9480   13.0330 C.3    85  MET85       0.0387
     85  CG        28.3130   16.9740   12.4910 C.3    85  MET85       0.0595
     86  SD        28.3690   16.8240   10.6890 S.3    85  MET85      -0.1393
     87  CE        28.1030   15.0630   10.4840 C.3    85  MET85       0.0692
     88  N         22.6810   17.1070    9.4290 N.3    88  ALA88      -0.1245
     89  CA        23.0240   15.9180    8.6440 C.3    88  ALA88       0.1562
     90  C         21.7930   15.1000    8.2600 C.2    88  ALA88       0.2260
     91  O         20.9520   14.7980    9.1080 O.2    88  ALA88      -0.2867
     92  CB        24.0100   15.0640    9.3940 C.3    88  ALA88       0.0290
     93  N         21.1460   12.0470    7.6950 N.3    90  SER90      -0.1202
     94  CA        20.9370   10.7940    8.4200 C.3    90  SER90       0.2020
     95  C         20.2860   11.0010    9.7850 C.2    90  SER90       0.2618
     96  O         19.6390   10.0940   10.3200 O.2    90  SER90      -0.2717
     97  CB        22.2720   10.0920    8.6080 C.3    90  SER90       0.2103
     98  OG        23.2340   10.9940    9.1160 O.3    90  SER90      -0.2182
     99  N         20.4670   12.1960   10.3430 N.am   91  ILE91      -0.1979
    100  CA        19.9720   12.5190   11.6770 C.3    91  ILE91       0.1595
    101  C         18.8490   13.5640   11.6210 C.2    91  ILE91       0.2287
    102  O         18.2780   13.9390   12.6430 O.2    91  ILE91      -0.2864
    103  CB        21.1600   12.9180   12.6270 C.3    91  ILE91       0.0276
    104  CG1       20.8500   12.5650   14.0950 C.3    91  ILE91       0.0022
    105  CG2       21.6140   14.3670   12.4100 C.3    91  ILE91       0.0022
    106  CD1       20.1010   13.6450   14.9130 C.3    91  ILE91       0.0001
    107  N         34.0800    7.7980   14.6410 N.3   182  LEU182     -0.1245
    108  CA        33.1840    6.9520   15.4310 C.3   182  LEU182      0.1561
    109  C         33.9590    5.9500   16.2830 C.2   182  LEU182      0.2260
    110  O         34.6860    6.3330   17.2010 O.2   182  LEU182     -0.2867
    111  CB        32.1990    6.2140   14.5140 C.3   182  LEU182      0.0270
    112  CG        30.7110    6.6090   14.4140 C.3   182  LEU182      0.0019
    113  CD1       29.8090    5.5710   15.0880 C.3   182  LEU182      0.0001
    114  CD2       30.3990    8.0300   14.9270 C.3   182  LEU182      0.0001
    115  N         29.7550    8.1700   26.0140 N.3   189  PHE189     -0.1227
    116  CA        28.6140    7.5030   25.3760 C.3   189  PHE189      0.1736
    117  C         27.7020    6.7720   26.3510 C.2   189  PHE189      0.2595
    118  O         26.4820    6.7990   26.2020 O.2   189  PHE189     -0.2718
    119  CB        29.0770    6.5340   24.2890 C.3   189  PHE189      0.0547
    120  CG        29.4610    7.2020   23.0040 C.ar  189  PHE189     -0.0202
    121  CD1       28.4930    7.7860   22.1930 C.ar  189  PHE189     -0.0042
    122  CD2       30.7900    7.2370   22.5970 C.ar  189  PHE189     -0.0042
    123  CE1       28.8450    8.4060   20.9980 C.ar  189  PHE189     -0.0003
    124  CE2       31.1550    7.8490   21.4030 C.ar  189  PHE189     -0.0003
    125  CZ        30.1800    8.4340   20.6000 C.ar  189  PHE189     -0.0000
    126  N         28.2970    6.1120   27.3380 N.am  190  LEU190     -0.1980
    127  CA        27.5260    5.3860   28.3380 C.3   190  LEU190      0.1596
    128  C         26.8120    6.3240   29.3020 C.2   190  LEU190      0.2287
    129  O         25.8410    5.9320   29.9470 O.2   190  LEU190     -0.2864
    130  CB        28.4180    4.4020   29.0930 C.3   190  LEU190      0.0297
    131  CG        28.4960    2.9330   28.6390 C.3   190  LEU190      0.0022
    132  CD1       27.6470    2.0500   29.5490 C.3   190  LEU190      0.0001
    133  CD2       28.1690    2.6950   27.1460 C.3   190  LEU190      0.0001
    134  N         23.6580    7.6640   27.2360 N.3   193  THR193     -0.1218
    135  CA        22.5530    6.7130   27.2350 C.3   193  THR193      0.1862
    136  C         21.8650    6.6570   28.5960 C.2   193  THR193      0.2287
    137  O         20.6410    6.5920   28.6670 O.2   193  THR193     -0.2866
    138  CB        23.0040    5.3130   26.8050 C.3   193  THR193      0.1770
    139  OG1       23.9600    5.4240   25.7450 O.3   193  THR193     -0.2211
    140  CG2       21.8140    4.5050   26.3140 C.3   193  THR193      0.0375
    141  N         31.6170   14.2340   18.4140 N.3   210  PHE210     -0.1241
    142  CA        32.7660   14.1210   17.5380 C.3   210  PHE210      0.1605
    143  C         33.9000   14.9980   18.0620 C.2   210  PHE210      0.2264
    144  O         33.6690   16.1560   18.4250 O.2   210  PHE210     -0.2867
    145  CB        32.3790   14.5180   16.1100 C.3   210  PHE210      0.0534
    146  CG        31.1010   13.8800   15.6260 C.ar  210  PHE210     -0.0203
    147  CD1       29.9240   14.6100   15.5680 C.ar  210  PHE210     -0.0042
    148  CD2       31.0750   12.5450   15.2400 C.ar  210  PHE210     -0.0042
    149  CE1       28.7440   14.0210   15.1220 C.ar  210  PHE210     -0.0003
    150  CE2       29.9020   11.9520   14.8020 C.ar  210  PHE210     -0.0003
    151  CZ        28.7360   12.6900   14.7410 C.ar  210  PHE210     -0.0000
    152  N         29.0340   13.5020    6.2540 N.3   270  ILE270     -0.1245
    153  CA        28.2440   12.2760    6.1680 C.3   270  ILE270      0.1561
    154  C         28.6510   11.4570    4.9500 C.2   270  ILE270      0.2260
    155  O         28.9240   10.2650    5.0610 O.2   270  ILE270     -0.2867
    156  CB        26.7270   12.5930    6.0900 C.3   270  ILE270      0.0252
    157  CG1       26.2440   13.2670    7.3840 C.3   270  ILE270      0.0019
    158  CG2       25.9110   11.3450    5.7680 C.3   270  ILE270      0.0019
    159  CD1       26.3920   12.4180    8.6440 C.3   270  ILE270      0.0001
    160  N         16.1850    1.2240   12.6830 N.3   343  GLU343     -0.1245
    161  CA        15.3420    1.7880   13.7270 C.3   343  GLU343      0.1567
    162  C         14.4610    2.9360   13.2440 C.2   343  GLU343      0.2260
    163  O         14.7810    3.6180   12.2680 O.2   343  GLU343     -0.2867
    164  CB        16.1610    2.1760   14.9620 C.3   343  GLU343      0.0388
    165  CG        17.0240    3.4260   14.8360 C.3   343  GLU343      0.1160
    166  CD        18.0040    3.5780   16.0060 C.2   343  GLU343      0.3649
    167  OE1       18.0200    2.7030   16.9130 O.co2 343  GLU343     -0.2457
    168  OE2       18.7680    4.5720   16.0110 O.co2 343  GLU343     -0.2457
    169  N         29.3690    0.5360   16.7730 N.3   450  GLY450     -0.1210
    170  CA        28.1300    1.0710   16.2000 C.3   450  GLY450      0.1956
    171  C         27.8880    0.6310   14.7670 C.2   450  GLY450      0.2611
    172  O         26.7700    0.7450   14.2530 O.2   450  GLY450     -0.2717
    173  N         28.9450    0.1490   14.1190 N.am  451  LEU451     -0.1979
    174  CA        28.8410   -0.4890   12.8170 C.3   451  LEU451      0.1596
    175  C         29.5090   -1.8470   12.8750 C.2   451  LEU451      0.2287
    176  O         30.4370   -2.0610   13.6470 O.2   451  LEU451     -0.2864
    177  CB        29.4780    0.3630   11.7140 C.3   451  LEU451      0.0297
    178  CG        28.7060    1.5300   11.0800 C.3   451  LEU451      0.0022
    179  CD1       29.3310    1.9110    9.7290 C.3   451  LEU451      0.0001
    180  CD2       27.2140    1.2260   10.9100 C.3   451  LEU451      0.0001
@<TRIPOS>BOND
     1   154   155    2
     2   154   153    1
     3   158   156    1
     4   156   153    1
     5   156   157    1
     6   153   152    1
     7   157   159    1
     8    49    48    1
     9    93    94    1
    10    90    89    1
    11    90    91    2
    12    94    97    1
    13    94    95    1
    14    48    50    1
    15    48    47    2
    16    97    98    1
    17    89    92    1
    18    89    88    1
    19    47    46    1
    20   179   178    1
    21    95    96    2
    22    95    99   am
    23    99   100    1
    24    87    86    1
    25    86    85    1
    26   180   178    1
    27    46    45    1
    28   178   177    1
    29   101   100    1
    30   101   102    2
    31   100   103    1
    32    45    44    1
    33   177   174    1
    34    83    82    2
    35   163   162    2
    36   105   103    1
    37    85    84    1
    38    81    82    1
    39    81    84    1
    40    81    80    1
    41   103   104    1
    42   160   161    1
    43    40    41    1
    44   174   175    1
    45   174   173    1
    46   175   176    2
    47    44    41    1
    48   162   161    1
    49    41    42    1
    50   161   164    1
    51   104   106    1
    52   173   171   am
    53   172   171    2
    54   112   111    1
    55   112   114    1
    56   112   113    1
    57   111   108    1
    58   107   108    1
    59   151   150   ar
    60   151   149   ar
    61   171   170    1
    62   150   148   ar
    63   165   164    1
    64   165   166    1
    65    42    43    2
    66    42    51   am
    67   149   147   ar
    68   148   146   ar
    69   108   109    1
    70   147   146   ar
    71   146   145    1
    72    51    52    1
    73   166   168   ar
    74   166   167   ar
    75   145   142    1
    76    79    77    1
    77    76    75    2
    78   170   169    1
    79   109   110    2
    80    54    53    2
    81    78    77    1
    82    77    74    1
    83    52    53    1
    84    52    55    1
    85    75    74    1
    86    69    71   ar
    87    69    67   ar
    88   142   143    1
    89   142   141    1
    90    71    72   ar
    91    66    67    1
    92    66    63    1
    93    67    68   ar
    94    55    56    1
    95    74    73    1
    96   143   144    2
    97    72    70   ar
    98    68    70   ar
    99    65    64    2
   100    62    63    1
   101    25    26    1
   102    25    22    1
   103    63    64    1
   104    23    24    2
   105    23    22    1
   106    27    26   ar
   107    27    29   ar
   108    56    57    1
   109    26    28   ar
   110    61    59    1
   111    22    21    1
   112    29    31   ar
   113    57    58    1
   114    28    30   ar
   115   125   123   ar
   116   125   124   ar
   117    59    58    2
   118    59    60    1
   119    31    30   ar
   120   123   121   ar
   121   124   122   ar
   122   121   120   ar
   123   122   120   ar
   124    39    37   ar
   125   120   119    1
   126    20    19    1
   127    18    19   ar
   128    18    16   ar
   129    19    17   ar
   130    16    14   ar
   131    37    38   ar
   132    37    36    1
   133   119   116    1
   134    12    11    2
   135    17    15   ar
   136    14    15   ar
   137    14    13    1
   138    36    33    1
   139    13    10    1
   140   116   115    1
   141   116   117    1
   142    11    10    1
   143    10     9    1
   144   139   138    1
   145    33    32    1
   146    33    34    1
   147   118   117    2
   148   140   138    1
   149   117   126   am
   150    35    34    2
   151   138   135    1
   152   133   131    1
   153   135   134    1
   154   135   136    1
   155   126   127    1
   156     7     5    1
   157     4     3    2
   158   127   130    1
   159   127   128    1
   160     2     5    1
   161     2     3    1
   162     2     1    1
   163     5     6    1
   164   136   137    2
   165   131   130    1
   166   131   132    1
   167   128   129    2
   168     6     8    1
