@<TRIPOS>MOLECULE
tmp/2v0mA02.pdb
 244 236 0 0 0
SMALL
GASTEIGER

@<TRIPOS>ATOM
      1  N         23.6780   -1.1750   45.0850 N.3    21  ILE21      -0.1245
      2  CA        22.3700   -0.8460   45.6830 C.3    21  ILE21       0.1561
      3  C         21.2410   -1.8550   45.4470 C.2    21  ILE21       0.2260
      4  O         20.3490   -1.9830   46.2820 O.2    21  ILE21      -0.2867
      5  CB        21.8860    0.6000   45.3600 C.3    21  ILE21       0.0252
      6  CG1       21.5960    0.7710   43.8690 C.3    21  ILE21       0.0019
      7  CG2       22.9010    1.6320   45.8640 C.3    21  ILE21       0.0019
      8  CD1       21.3960    2.2090   43.4560 C.3    21  ILE21       0.0001
      9  N         20.1810   -3.9960   48.1080 N.3    24  TYR24      -0.1241
     10  CA        19.3350   -3.4140   49.1490 C.3    24  TYR24       0.1605
     11  C         17.8740   -3.8850   49.1080 C.2    24  TYR24       0.2264
     12  O         17.0350   -3.3580   49.8340 O.2    24  TYR24      -0.2867
     13  CB        19.3840   -1.8880   49.0640 C.3    24  TYR24       0.0534
     14  CG        20.6330   -1.2570   49.6370 C.ar   24  TYR24      -0.0201
     15  CD1       21.2580   -0.1900   48.9940 C.ar   24  TYR24      -0.0009
     16  CD2       21.1770   -1.7150   50.8350 C.ar   24  TYR24      -0.0009
     17  CE1       22.3950    0.4000   49.5260 C.ar   24  TYR24       0.0417
     18  CE2       22.3110   -1.1370   51.3730 C.ar   24  TYR24       0.0417
     19  CZ        22.9150   -0.0790   50.7230 C.ar   24  TYR24       0.1957
     20  OH        24.0390    0.4830   51.2890 O.3    24  TYR24      -0.2866
     21  N         18.8580   -3.2680   54.6720 N.3    28  PHE28      -0.1241
     22  CA        20.2480   -3.0320   55.0890 C.3    28  PHE28       0.1605
     23  C         20.7410   -4.0710   56.0750 C.2    28  PHE28       0.2264
     24  O         21.9310   -4.3540   56.1520 O.2    28  PHE28      -0.2867
     25  CB        20.3920   -1.6500   55.7220 C.3    28  PHE28       0.0534
     26  CG        19.8710   -0.5540   54.8700 C.ar   28  PHE28      -0.0203
     27  CD1       18.5240   -0.2060   54.9110 C.ar   28  PHE28      -0.0042
     28  CD2       20.7150    0.1270   54.0100 C.ar   28  PHE28      -0.0042
     29  CE1       18.0240    0.8110   54.1050 C.ar   28  PHE28      -0.0003
     30  CE2       20.2320    1.1420   53.1970 C.ar   28  PHE28      -0.0003
     31  CZ        18.8790    1.4840   53.2430 C.ar   28  PHE28      -0.0000
     32  N         27.5710    2.7480   47.5530 N.3    47  ASP47      -0.1239
     33  CA        26.2420    3.3430   47.4470 C.3    47  ASP47       0.1674
     34  C         26.3340    4.3120   46.2840 C.2    47  ASP47       0.2266
     35  O         26.7810    5.4530   46.4570 O.2    47  ASP47      -0.2867
     36  CB        25.8590    4.0980   48.7290 C.3    47  ASP47       0.1410
     37  CG        25.2970    3.1870   49.8210 C.2    47  ASP47       0.3668
     38  OD1       25.0640    1.9900   49.5550 O.co2  47  ASP47      -0.2456
     39  OD2       25.0750    3.6770   50.9540 O.co2  47  ASP47      -0.2456
     40  N         28.7910   13.1190   59.6040 N.3    76  ARG76      -0.1231
     41  CA        28.1190   12.0120   58.9590 C.3    76  ARG76       0.1694
     42  C         28.0850   12.2230   57.4540 C.2    76  ARG76       0.2592
     43  O         28.5430   13.2500   56.9520 O.2    76  ARG76      -0.2718
     44  CB        26.7150   11.8320   59.5340 C.3    76  ARG76       0.0321
     45  CG        26.7300   11.4050   60.9860 C.3    76  ARG76       0.0489
     46  CD        25.4730   10.6480   61.3670 C.3    76  ARG76       0.2205
     47  NE        25.4420   10.3380   62.7960 N.pl3  76  ARG76      -0.0865
     48  CZ        25.0980   11.2070   63.7420 C.cat  76  ARG76       0.5346
     49  NH1       25.1060   10.8330   65.0150 N.pl3  76  ARG76       0.1354
     50  NH2       24.7530   12.4510   63.4170 N.pl3  76  ARG76       0.1354
     51  N         27.5690   11.2240   56.7480 N.am   77  ARG77      -0.1966
     52  CA        27.3640   11.2560   55.3020 C.3    77  ARG77       0.1714
     53  C         26.4800   12.4440   54.9060 C.2    77  ARG77       0.2458
     54  O         25.3980   12.6280   55.4750 O.2    77  ARG77      -0.2730
     55  CB        26.6710    9.9580   54.8970 C.3    77  ARG77       0.0347
     56  CG        26.9700    9.4300   53.5230 C.3    77  ARG77       0.0492
     57  CD        25.7980    8.5810   53.0970 C.3    77  ARG77       0.2205
     58  NE        26.1670    7.4020   52.3200 N.pl3  77  ARG77      -0.0865
     59  CZ        26.3360    6.1870   52.8350 C.cat  77  ARG77       0.5346
     60  NH1       26.6570    5.1800   52.0450 N.pl3  77  ARG77       0.1354
     61  NH2       26.1850    5.9720   54.1330 N.pl3  77  ARG77       0.1354
     62  N         26.9310   13.2600   53.9350 N.am   78  PRO78      -0.2716
     63  CA        26.1250   14.4210   53.5600 C.3    78  PRO78       0.1536
     64  C         24.7280   14.0180   53.0780 C.2    78  PRO78       0.2598
     65  O         24.5570   12.9910   52.4110 O.2    78  PRO78      -0.2715
     66  CB        26.9330   15.0780   52.4350 C.3    78  PRO78       0.0310
     67  CG        27.8760   14.0340   51.9630 C.3    78  PRO78       0.0237
     68  CD        28.1690   13.1700   53.1440 C.3    78  PRO78       0.0939
     69  N         23.7380   14.8200   53.4460 N.am   79  PHE79      -0.1974
     70  CA        22.3620   14.5300   53.0990 C.3    79  PHE79       0.1639
     71  C         21.6360   15.7760   52.5980 C.2    79  PHE79       0.2290
     72  O         21.6460   16.8330   53.2460 O.2    79  PHE79      -0.2864
     73  CB        21.6280   13.9190   54.2950 C.3    79  PHE79       0.0560
     74  CG        20.1890   13.6110   54.0220 C.ar   79  PHE79      -0.0200
     75  CD1       19.8350   12.6880   53.0420 C.ar   79  PHE79      -0.0042
     76  CD2       19.1870   14.2430   54.7390 C.ar   79  PHE79      -0.0042
     77  CE1       18.4990   12.3950   52.7790 C.ar   79  PHE79      -0.0003
     78  CE2       17.8430   13.9600   54.4860 C.ar   79  PHE79      -0.0003
     79  CZ        17.5020   13.0300   53.5020 C.ar   79  PHE79      -0.0000
     80  N         16.9160   22.8600   56.8700 N.3    85  MET85      -0.1245
     81  CA        17.2470   21.8650   57.8920 C.3    85  MET85       0.1570
     82  C         18.7400   21.5540   57.9570 C.2    85  MET85       0.2261
     83  O         19.1550   20.6680   58.7000 O.2    85  MET85      -0.2867
     84  CB        16.4460   20.5750   57.6910 C.3    85  MET85       0.0387
     85  CG        14.9940   20.6720   58.1030 C.3    85  MET85       0.0595
     86  SD        14.7630   20.9730   59.8590 S.3    85  MET85      -0.1393
     87  CE        15.1360   19.3570   60.5260 C.3    85  MET85       0.0692
     88  N         21.9700   16.9940   63.9990 N.3    90  SER90      -0.1202
     89  CA        22.2630   15.6450   63.5210 C.3    90  SER90       0.2020
     90  C         22.9500   15.5980   62.1620 C.2    90  SER90       0.2618
     91  O         23.5530   14.5850   61.8060 O.2    90  SER90      -0.2717
     92  CB        20.9880   14.8090   63.4800 C.3    90  SER90       0.2103
     93  OG        19.9300   15.5250   62.8710 O.3    90  SER90      -0.2182
     94  N         22.8570   16.6890   61.4090 N.am   91  ILE91      -0.1979
     95  CA        23.4790   16.7650   60.0850 C.3    91  ILE91       0.1595
     96  C         24.4440   17.9450   59.9410 C.2    91  ILE91       0.2287
     97  O         25.0490   18.1400   58.8810 O.2    91  ILE91      -0.2864
     98  CB        22.4260   16.7510   58.9450 C.3    91  ILE91       0.0276
     99  CG1       21.4210   17.9020   59.1090 C.3    91  ILE91       0.0022
    100  CG2       21.7310   15.3730   58.8780 C.3    91  ILE91       0.0022
    101  CD1       20.4970   18.1060   57.9120 C.3    91  ILE91       0.0001
    102  N          9.6390   11.0790   57.2930 N.3   182  LEU182     -0.1245
    103  CA        10.5080   10.0590   56.7090 C.3   182  LEU182      0.1561
    104  C          9.8100    9.3830   55.5270 C.2   182  LEU182      0.2260
    105  O          9.7460    9.9460   54.4280 O.2   182  LEU182     -0.2867
    106  CB        10.8880    8.9970   57.7480 C.3   182  LEU182      0.0270
    107  CG        12.0800    9.1390   58.7000 C.3   182  LEU182      0.0019
    108  CD1       12.2750    7.8240   59.4620 C.3   182  LEU182      0.0001
    109  CD2       13.3670    9.5360   57.9860 C.3   182  LEU182      0.0001
    110  N         10.2930    7.4790   53.1520 N.3   184  PHE184     -0.1227
    111  CA        10.8890    7.3070   51.8110 C.3   184  PHE184      0.1736
    112  C         10.9240    5.9060   51.1750 C.2   184  PHE184      0.2595
    113  O         10.7200    5.7770   49.9610 O.2   184  PHE184     -0.2718
    114  CB        12.2700    7.9690   51.7240 C.3   184  PHE184      0.0547
    115  CG        13.1920    7.6320   52.8590 C.ar  184  PHE184     -0.0202
    116  CD1       13.8150    6.3850   52.9320 C.ar  184  PHE184     -0.0042
    117  CD2       13.4660    8.5780   53.8410 C.ar  184  PHE184     -0.0042
    118  CE1       14.6770    6.0740   53.9810 C.ar  184  PHE184     -0.0003
    119  CE2       14.3320    8.2810   54.8930 C.ar  184  PHE184     -0.0003
    120  CZ        14.9360    7.0250   54.9650 C.ar  184  PHE184     -0.0000
    121  N         11.1920    4.8750   51.9790 N.am  185  ASP185     -0.1960
    122  CA        11.1880    3.4700   51.5160 C.3   185  ASP185      0.1840
    123  C         12.2200    3.1230   50.4250 C.2   185  ASP185      0.2622
    124  O         13.0340    3.9610   50.0160 O.2   185  ASP185     -0.2715
    125  CB         9.7760    3.0360   51.0690 C.3   185  ASP185      0.1450
    126  CG         9.0040    2.3130   52.1660 C.2   185  ASP185      0.3671
    127  OD1        9.2640    1.1090   52.3870 O.co2 185  ASP185     -0.2456
    128  OD2        8.1250    2.9450   52.7920 O.co2 185  ASP185     -0.2456
    129  N         12.1650    1.8710   49.9710 N.am  186  PHE186     -0.1960
    130  CA        13.0540    1.3450   48.9370 C.3   186  PHE186      0.1771
    131  C         12.6570    1.8390   47.5500 C.2   186  PHE186      0.2619
    132  O         11.4710    2.0570   47.2780 O.2   186  PHE186     -0.2715
    133  CB        13.0440   -0.1950   48.9600 C.3   186  PHE186      0.0574
    134  CG        11.7580   -0.8130   48.4400 C.ar  186  PHE186     -0.0200
    135  CD1       11.7040   -1.3680   47.1580 C.ar  186  PHE186     -0.0042
    136  CD2       10.6020   -0.8370   49.2310 C.ar  186  PHE186     -0.0042
    137  CE1       10.5180   -1.9350   46.6690 C.ar  186  PHE186     -0.0003
    138  CE2        9.4080   -1.4030   48.7530 C.ar  186  PHE186     -0.0003
    139  CZ         9.3660   -1.9530   47.4690 C.ar  186  PHE186     -0.0000
    140  N         13.6620    2.0200   46.6910 N.am  187  LEU187     -0.1963
    141  CA        13.4790    2.2270   45.2430 C.3   187  LEU187      0.1728
    142  C         12.6490    3.4450   44.8060 C.2   187  LEU187      0.2616
    143  O         12.1740    3.4850   43.6660 O.2   187  LEU187     -0.2715
    144  CB        12.9630    0.9400   44.5670 C.3   187  LEU187      0.0311
    145  CG        13.9190   -0.0820   43.9150 C.3   187  LEU187      0.0022
    146  CD1       14.2630    0.3060   42.4700 C.3   187  LEU187      0.0001
    147  CD2       15.1910   -0.3650   44.7360 C.3   187  LEU187      0.0001
    148  N         12.4790    4.4270   45.6940 N.am  188  ASP188     -0.1971
    149  CA        11.8550    5.6960   45.3110 C.3   188  ASP188      0.1709
    150  C         12.7780    6.3490   44.2930 C.2   188  ASP188      0.2293
    151  O         13.9320    6.6420   44.6160 O.2   188  ASP188     -0.2864
    152  CB        11.6640    6.6220   46.5230 C.3   188  ASP188      0.1436
    153  CG        10.8030    7.8670   46.2070 C.2   188  ASP188      0.3671
    154  OD1       10.9350    8.4670   45.1110 O.co2 188  ASP188     -0.2456
    155  OD2        9.9940    8.2610   47.0780 O.co2 188  ASP188     -0.2456
    156  N         15.1650    9.2810   45.7320 N.3   191  PHE191     -0.1227
    157  CA        16.3200    8.9390   46.5650 C.3   191  PHE191      0.1736
    158  C         17.3220    8.0540   45.8390 C.2   191  PHE191      0.2595
    159  O         18.5290    8.1490   46.0690 O.2   191  PHE191     -0.2718
    160  CB        15.8680    8.2680   47.8640 C.3   191  PHE191      0.0547
    161  CG        15.2530    9.2160   48.8500 C.ar  191  PHE191     -0.0202
    162  CD1       16.0490    9.9170   49.7490 C.ar  191  PHE191     -0.0042
    163  CD2       13.8790    9.4180   48.8740 C.ar  191  PHE191     -0.0042
    164  CE1       15.4830   10.8070   50.6600 C.ar  191  PHE191     -0.0003
    165  CE2       13.3010   10.3080   49.7800 C.ar  191  PHE191     -0.0003
    166  CZ        14.1030   10.9980   50.6770 C.ar  191  PHE191     -0.0000
    167  N         16.8040    7.1980   44.9660 N.am  192  LEU192     -0.1980
    168  CA        17.6190    6.3300   44.1310 C.3   192  LEU192      0.1596
    169  C         18.4970    7.1360   43.1780 C.2   192  LEU192      0.2287
    170  O         19.6780    6.8360   43.0250 O.2   192  LEU192     -0.2864
    171  CB        16.7130    5.3730   43.3540 C.3   192  LEU192      0.0297
    172  CG        17.2750    4.2090   42.5370 C.3   192  LEU192      0.0022
    173  CD1       18.1240    3.2830   43.3810 C.3   192  LEU192      0.0001
    174  CD2       16.1260    3.4370   41.9140 C.3   192  LEU192      0.0001
    175  N         21.3460    9.0270   45.1540 N.3   195  THR195     -0.1218
    176  CA        22.4710    8.1690   45.5200 C.3   195  THR195      0.1862
    177  C         23.3730    7.8970   44.3120 C.2   195  THR195      0.2287
    178  O         24.5950    7.7980   44.4500 O.2   195  THR195     -0.2866
    179  CB        21.9850    6.8270   46.1060 C.3   195  THR195      0.1770
    180  OG1       21.1280    7.0770   47.2260 O.3   195  THR195     -0.2211
    181  CG2       23.1580    5.9730   46.5600 C.3   195  THR195      0.0375
    182  N         11.9210   16.7520   52.6700 N.3   212  PHE212     -0.1241
    183  CA        10.7490   16.8540   53.5380 C.3   212  PHE212      0.1605
    184  C          9.6190   17.5930   52.8370 C.2   212  PHE212      0.2264
    185  O          9.8680   18.6140   52.1950 O.2   212  PHE212     -0.2867
    186  CB        11.0990   17.6000   54.8310 C.3   212  PHE212      0.0534
    187  CG        12.4370   17.2280   55.4120 C.ar  212  PHE212     -0.0203
    188  CD1       13.4620   18.1640   55.4750 C.ar  212  PHE212     -0.0042
    189  CD2       12.6760   15.9400   55.8930 C.ar  212  PHE212     -0.0042
    190  CE1       14.7020   17.8270   56.0100 C.ar  212  PHE212     -0.0003
    191  CE2       13.9150   15.5950   56.4290 C.ar  212  PHE212     -0.0003
    192  CZ        14.9280   16.5420   56.4880 C.ar  212  PHE212     -0.0000
    193  N         14.0930   18.2910   64.9660 N.3   258  ILE258     -0.1245
    194  CA        14.8870   17.1120   65.2810 C.3   258  ILE258      0.1561
    195  C         14.3400   16.4440   66.5390 C.2   258  ILE258      0.2260
    196  O         13.9460   15.2780   66.4990 O.2   258  ILE258     -0.2867
    197  CB        16.3900   17.4450   65.4520 C.3   258  ILE258      0.0252
    198  CG1       16.9790   17.9480   64.1340 C.3   258  ILE258      0.0019
    199  CG2       17.1730   16.2260   65.9550 C.3   258  ILE258      0.0019
    200  CD1       16.8740   16.9600   62.9710 C.3   258  ILE258      0.0001
    201  N         22.9320    1.0360   61.4110 N.3   329  ARG329     -0.1245
    202  CA        24.3100    1.3280   61.0650 C.3   329  ARG329      0.1563
    203  C         24.7200    2.6630   61.6440 C.2   329  ARG329      0.2260
    204  O         23.9790    3.6440   61.5730 O.2   329  ARG329     -0.2867
    205  CB        24.4770    1.3950   59.5500 C.3   329  ARG329      0.0307
    206  CG        24.5610    0.0610   58.8660 C.3   329  ARG329      0.0489
    207  CD        23.6090    0.0150   57.6890 C.3   329  ARG329      0.2205
    208  NE        24.0560    0.7870   56.5290 N.pl3 329  ARG329     -0.0865
    209  CZ        24.2960    0.2640   55.3290 C.cat 329  ARG329      0.5346
    210  NH1       24.1380   -1.0390   55.1190 N.pl3 329  ARG329      0.1354
    211  NH2       24.6910    1.0450   54.3320 N.pl3 329  ARG329      0.1354
    212  N         27.6680    5.5170   61.1050 N.3   331  GLU331     -0.1245
    213  CA        28.6170    5.9170   60.0740 C.3   331  GLU331      0.1567
    214  C         29.2870    7.2610   60.3340 C.2   331  GLU331      0.2260
    215  O         28.7550    8.1080   61.0530 O.2   331  GLU331     -0.2867
    216  CB        27.9680    5.8970   58.6910 C.3   331  GLU331      0.0388
    217  CG        26.9240    6.9720   58.4410 C.3   331  GLU331      0.1160
    218  CD        26.1400    6.7150   57.1650 C.2   331  GLU331      0.3649
    219  OE1       26.0840    5.5380   56.7150 O.co2 331  GLU331     -0.2457
    220  OE2       25.5830    7.6930   56.6140 O.co2 331  GLU331     -0.2457
    221  N         11.8480   -2.0850   54.8220 N.3   436  LEU436     -0.1231
    222  CA        13.0430   -1.7350   54.0660 C.3   436  LEU436      0.1693
    223  C         13.2400   -0.2170   54.1020 C.2   436  LEU436      0.2593
    224  O         13.3640    0.4370   53.0590 O.2   436  LEU436     -0.2718
    225  CB        12.9190   -2.2420   52.6220 C.3   436  LEU436      0.0284
    226  CG        12.3410   -3.6500   52.4090 C.3   436  LEU436      0.0019
    227  CD1       11.5740   -3.7400   51.0910 C.3   436  LEU436      0.0001
    228  CD2       13.4140   -4.7310   52.4880 C.3   436  LEU436      0.0001
    229  N         13.2600    0.3380   55.3120 N.am  437  GLY437     -0.1942
    230  CA        13.3960    1.7790   55.5030 C.3   437  GLY437      0.2014
    231  C         14.7560    2.2040   56.0270 C.2   437  GLY437      0.2639
    232  O         15.6560    1.3760   56.2150 O.2   437  GLY437     -0.2714
    233  N         14.8930    3.5070   56.2640 N.am  438  GLY438     -0.1939
    234  CA        16.1430    4.1020   56.7330 C.3   438  GLY438      0.2014
    235  C         16.3580    3.9550   58.2240 C.2   438  GLY438      0.2638
    236  O         17.4920    3.9750   58.6940 O.2   438  GLY438     -0.2714
    237  N         15.2600    3.8410   58.9650 N.am  439  LEU439     -0.1977
    238  CA        15.2990    3.4420   60.3670 C.3   439  LEU439      0.1596
    239  C         14.5510    2.1240   60.5050 C.2   439  LEU439      0.2287
    240  O         13.7310    1.7820   59.6550 O.2   439  LEU439     -0.2864
    241  CB        14.6640    4.5020   61.2790 C.3   439  LEU439      0.0297
    242  CG        15.2720    5.8940   61.5060 C.3   439  LEU439      0.0022
    243  CD1       14.5310    6.5570   62.6620 C.3   439  LEU439      0.0001
    244  CD2       16.7760    5.8750   61.7840 C.3   439  LEU439      0.0001
@<TRIPOS>BOND
     1   174   172    1
     2   146   145    1
     3   172   171    1
     4   172   173    1
     5   170   169    2
     6   169   168    1
     7   171   168    1
     8     8     6    1
     9   143   142    2
    10     6     5    1
    11   145   144    1
    12   145   147    1
    13   168   167    1
    14   150   151    2
    15   150   149    1
    16   177   178    2
    17   177   176    1
    18   144   141    1
    19   142   141    1
    20   142   148   am
    21   167   158   am
    22     1     2    1
    23   154   153   ar
    24   175   176    1
    25   141   140    1
    26   149   148    1
    27   149   152    1
    28     5     2    1
    29     5     7    1
    30     3     2    1
    31     3     4    2
    32   176   179    1
    33   156   157    1
    34   158   159    2
    35   158   157    1
    36   179   181    1
    37   179   180    1
    38   153   152    1
    39   153   155   ar
    40    34    35    2
    41    34    33    1
    42   157   160    1
    43   137   135   ar
    44   137   139   ar
    45   140   131   am
    46   135   134   ar
    47   132   131    2
    48    33    32    1
    49    33    36    1
    50   139   138   ar
    51   131   130    1
    52   160   161    1
    53     9    10    1
    54   134   133    1
    55   134   136   ar
    56    36    37    1
    57   138   136   ar
    58   161   163   ar
    59   161   162   ar
    60   163   165   ar
    61   130   133    1
    62   130   129    1
    63    15    17   ar
    64    15    14   ar
    65    13    10    1
    66    13    14    1
    67    11    10    1
    68    11    12    2
    69    17    19   ar
    70    38    37   ar
    71    14    16   ar
    72   162   164   ar
    73   165   166   ar
    74    37    39   ar
    75   113   112    2
    76   129   123   am
    77   124   123    2
    78   123   122    1
    79   164   166   ar
    80    19    20    1
    81    19    18   ar
    82    16    18   ar
    83   125   122    1
    84   125   126    1
    85   227   226    1
    86   112   111    1
    87   112   121   am
    88   122   121    1
    89   114   111    1
    90   114   115    1
    91   111   110    1
    92    67    66    1
    93    67    68    1
    94    60    59    1
    95   126   127   ar
    96   126   128   ar
    97   185   184    2
    98    58    59    2
    99    58    57    1
   100   226   228    1
   101   226   225    1
   102    65    64    2
   103    66    63    1
   104    71    70    1
   105    71    72    2
   106   225   222    1
   107   182   183    1
   108    77    75   ar
   109    77    79   ar
   110    59    61    1
   111   184   183    1
   112   115   116   ar
   113   115   117   ar
   114   116   118   ar
   115    75    74   ar
   116   224   223    2
   117    64    69   am
   118    64    63    1
   119    57    56    1
   120    70    69    1
   121    70    73    1
   122    68    62    1
   123    30    31   ar
   124    30    28   ar
   125    31    29   ar
   126    79    78   ar
   127    56    55    1
   128   183   186    1
   129    63    62    1
   130   117   119   ar
   131    62    53   am
   132   118   120   ar
   133    28    26   ar
   134    74    73    1
   135    74    76   ar
   136   222   223    1
   137   222   221    1
   138   223   229   am
   139    29    27   ar
   140   211   209    1
   141   105   104    2
   142    78    76   ar
   143    21    22    1
   144   186   187    1
   145    26    27   ar
   146    26    25    1
   147   119   120   ar
   148    55    52    1
   149    53    52    1
   150    53    54    2
   151    22    25    1
   152    22    23    1
   153   210   209    1
   154    52    51    1
   155   229   230    1
   156   209   208    2
   157   187   188   ar
   158   187   189   ar
   159   188   190   ar
   160   230   231    1
   161   104   103    1
   162   189   191   ar
   163   190   192   ar
   164   231   232    2
   165   231   233   am
   166    23    24    2
   167   233   234    1
   168   191   192   ar
   169   208   207    1
   170   220   218   ar
   171   103   102    1
   172   103   106    1
   173   219   218   ar
   174   234   235    1
   175    51    42   am
   176    80    81    1
   177    43    42    2
   178   218   217    1
   179    42    41    1
   180   207   206    1
   181    84    81    1
   182    84    85    1
   183   106   107    1
   184    81    82    1
   185   101    99    1
   186    82    83    2
   187   109   107    1
   188    85    86    1
   189   235   236    2
   190   235   237   am
   191   217   216    1
   192   216   213    1
   193   107   108    1
   194   206   205    1
   195   100    98    1
   196    97    96    2
   197    98    99    1
   198    98    95    1
   199    41    44    1
   200    41    40    1
   201   237   238    1
   202    44    45    1
   203   205   202    1
   204   240   239    2
   205    86    87    1
   206    96    95    1
   207   213   214    1
   208   213   212    1
   209    95    94    1
   210   214   215    2
   211   238   239    1
   212   238   241    1
   213    45    46    1
   214   202   201    1
   215   202   203    1
   216   241   242    1
   217    46    47    1
   218    94    90   am
   219   242   244    1
   220   242   243    1
   221   204   203    2
   222    91    90    2
   223    90    89    1
   224    47    48    2
   225    93    92    1
   226   200   198    1
   227    50    48    1
   228    92    89    1
   229    89    88    1
   230    48    49    1
   231   198   197    1
   232   193   194    1
   233   194   197    1
   234   194   195    1
   235   197   199    1
   236   196   195    2
