@<TRIPOS>MOLECULE
tmp/2v0mB01.pdb
 180 170 0 0 0
SMALL
GASTEIGER

@<TRIPOS>ATOM
      1  N          2.6530   40.0990   33.6160 N.3    28  PHE28      -0.1241
      2  CA         2.3900   39.7670   32.2140 C.3    28  PHE28       0.1605
      3  C          1.6020   40.8450   31.4730 C.2    28  PHE28       0.2264
      4  O          1.8440   41.1130   30.2960 O.2    28  PHE28      -0.2867
      5  CB         1.5810   38.4660   32.1340 C.3    28  PHE28       0.0534
      6  CG         2.3880   37.2220   32.3230 C.ar   28  PHE28      -0.0203
      7  CD1        2.5340   36.6540   33.5820 C.ar   28  PHE28      -0.0042
      8  CD2        2.9760   36.5920   31.2370 C.ar   28  PHE28      -0.0042
      9  CE1        3.2800   35.4820   33.7580 C.ar   28  PHE28      -0.0003
     10  CE2        3.7200   35.4200   31.3980 C.ar   28  PHE28      -0.0003
     11  CZ         3.8720   34.8670   32.6580 C.ar   28  PHE28      -0.0000
     12  N         -0.1940   23.7920   22.7960 N.3    76  ARG76      -0.1231
     13  CA         0.2750   24.8660   23.6420 C.3    76  ARG76       0.1694
     14  C          1.7380   24.6160   23.9540 C.2    76  ARG76       0.2591
     15  O          2.3120   23.6270   23.5040 O.2    76  ARG76      -0.2718
     16  CB        -0.5550   24.9410   24.9240 C.3    76  ARG76       0.0321
     17  CG        -2.0440   24.9410   24.6700 C.3    76  ARG76       0.0489
     18  CD        -2.8200   25.6450   25.7630 C.3    76  ARG76       0.2205
     19  NE        -4.1520   26.0490   25.3000 N.pl3  76  ARG76      -0.0865
     20  CZ        -5.2290   25.2690   25.3130 C.cat  76  ARG76       0.5346
     21  NH1       -6.3880   25.7290   24.8690 N.pl3  76  ARG76       0.1354
     22  NH2       -5.1460   24.0330   25.7770 N.pl3  76  ARG76       0.1354
     23  N          2.3280   25.5310   24.7120 N.am   77  ARG77      -0.1980
     24  CA         3.7130   25.4590   25.1620 C.3    77  ARG77       0.1597
     25  C          3.9150   24.1820   25.9420 C.2    77  ARG77       0.2287
     26  O          3.0920   23.8660   26.7970 O.2    77  ARG77      -0.2864
     27  CB         3.9650   26.6240   26.1040 C.3    77  ARG77       0.0334
     28  CG         5.2960   27.2770   25.9940 C.3    77  ARG77       0.0492
     29  CD         5.0670   28.7370   26.2090 C.3    77  ARG77       0.2205
     30  NE         6.2020   29.3960   26.8170 N.pl3  77  ARG77      -0.0865
     31  CZ         6.3960   30.7100   26.8150 C.cat  77  ARG77       0.5346
     32  NH1        7.4720   31.1940   27.4060 N.pl3  77  ARG77       0.1354
     33  NH2        5.5360   31.5370   26.2240 N.pl3  77  ARG77       0.1354
     34  N          0.0920   13.6150   34.7710 N.3    85  MET85      -0.1245
     35  CA        -0.8780   14.5560   34.2280 C.3    85  MET85       0.1570
     36  C         -0.6040   14.9150   32.7640 C.2    85  MET85       0.2261
     37  O         -1.3470   15.6900   32.1680 O.2    85  MET85      -0.2867
     38  CB        -0.9400   15.8110   35.1020 C.3    85  MET85       0.0387
     39  CG        -1.5640   15.5880   36.4780 C.3    85  MET85       0.0595
     40  SD        -3.3720   15.5770   36.4810 S.3    85  MET85      -0.1393
     41  CE        -3.7420   17.1850   35.7760 C.3    85  MET85       0.0692
     42  N         -5.7510   19.5270   28.4910 N.3    90  SER90      -0.1202
     43  CA        -5.2140   20.8860   28.4680 C.3    90  SER90       0.2020
     44  C         -3.7580   20.9850   28.0180 C.2    90  SER90       0.2618
     45  O         -3.3740   21.9870   27.4160 O.2    90  SER90      -0.2717
     46  CB        -5.3880   21.5490   29.8270 C.3    90  SER90       0.2103
     47  OG        -5.1010   20.6330   30.8640 O.3    90  SER90      -0.2182
     48  N         -2.9490   19.9680   28.3160 N.am   91  ILE91      -0.1979
     49  CA        -1.5630   19.9580   27.8390 C.3    91  ILE91       0.1595
     50  C         -1.2600   18.8700   26.7840 C.2    91  ILE91       0.2287
     51  O         -0.1170   18.7130   26.3460 O.2    91  ILE91      -0.2864
     52  CB        -0.5110   19.9820   29.0060 C.3    91  ILE91       0.0276
     53  CG1       -0.2840   18.5900   29.6150 C.3    91  ILE91       0.0022
     54  CG2       -0.8630   21.0730   30.0460 C.3    91  ILE91       0.0022
     55  CD1       -0.8360   18.4190   31.0080 C.3    91  ILE91       0.0001
     56  N         -3.2770   23.3740   44.0030 N.3   181  LEU181     -0.1231
     57  CA        -2.7800   22.7060   42.8020 C.3   181  LEU181      0.1693
     58  C         -1.9030   23.6060   41.9030 C.2   181  LEU181      0.2591
     59  O         -1.3170   23.1330   40.9230 O.2   181  LEU181     -0.2718
     60  CB        -3.9600   22.1020   42.0250 C.3   181  LEU181      0.0284
     61  CG        -3.7690   20.9480   41.0280 C.3   181  LEU181      0.0019
     62  CD1       -3.2120   19.6840   41.6860 C.3   181  LEU181      0.0001
     63  CD2       -5.0860   20.6470   40.3190 C.3   181  LEU181      0.0001
     64  N         -1.8070   24.8930   42.2400 N.am  182  LEU182     -0.1980
     65  CA        -0.9230   25.8180   41.5190 C.3   182  LEU182      0.1596
     66  C         -0.0270   26.6550   42.4470 C.2   182  LEU182      0.2287
     67  O          0.6200   26.1120   43.3480 O.2   182  LEU182     -0.2864
     68  CB        -1.7300   26.7200   40.5810 C.3   182  LEU182      0.0297
     69  CG        -2.1140   26.1630   39.2060 C.3   182  LEU182      0.0022
     70  CD1       -2.6630   27.2940   38.3320 C.3   182  LEU182      0.0001
     71  CD2       -0.9320   25.4690   38.5100 C.3   182  LEU182      0.0001
     72  N          2.8580   19.7550   40.7030 N.3   210  PHE210     -0.1241
     73  CA         1.8540   19.6540   41.7630 C.3   210  PHE210      0.1605
     74  C          2.3930   18.8470   42.9510 C.2   210  PHE210      0.2264
     75  O          3.0300   17.8070   42.7460 O.2   210  PHE210     -0.2867
     76  CB         0.5660   18.9890   41.2530 C.3   210  PHE210      0.0534
     77  CG         0.2880   19.2110   39.7910 C.ar  210  PHE210     -0.0203
     78  CD1        0.6160   18.2340   38.8540 C.ar  210  PHE210     -0.0042
     79  CD2       -0.3170   20.3840   39.3500 C.ar  210  PHE210     -0.0042
     80  CE1        0.3590   18.4260   37.4960 C.ar  210  PHE210     -0.0003
     81  CE2       -0.5760   20.5830   37.9960 C.ar  210  PHE210     -0.0003
     82  CZ        -0.2390   19.5980   37.0680 C.ar  210  PHE210     -0.0000
     83  N         -9.1720   15.6970   37.2230 N.3   255  ILE255     -0.1231
     84  CA        -8.4130   16.7430   37.9170 C.3   255  ILE255      0.1692
     85  C         -8.4880   18.0820   37.1610 C.2   255  ILE255      0.2591
     86  O         -8.6670   19.1320   37.7830 O.2   255  ILE255     -0.2718
     87  CB        -6.9450   16.3040   38.1560 C.3   255  ILE255      0.0266
     88  CG1       -6.9030   15.1480   39.1630 C.3   255  ILE255      0.0019
     89  CG2       -6.1010   17.4660   38.6550 C.3   255  ILE255      0.0020
     90  CD1       -5.6260   14.2960   39.1150 C.3   255  ILE255      0.0001
     91  N         -8.3670   18.0320   35.8310 N.am  256  ILE256     -0.1980
     92  CA        -8.5140   19.2140   34.9880 C.3   256  ILE256      0.1595
     93  C         -9.8730   19.8800   35.1890 C.2   256  ILE256      0.2287
     94  O         -9.9520   21.0940   35.3910 O.2   256  ILE256     -0.2864
     95  CB        -8.3220   18.8810   33.4840 C.3   256  ILE256      0.0276
     96  CG1       -6.8820   18.4650   33.2070 C.3   256  ILE256      0.0022
     97  CG2       -8.7090   20.0660   32.5880 C.3   256  ILE256      0.0022
     98  CD1       -5.8300   19.4740   33.6480 C.3   256  ILE256      0.0001
     99  N        -10.5930   21.2350   38.9920 N.3   259  PHE259     -0.1227
    100  CA        -9.8920   22.4930   39.2190 C.3   259  PHE259      0.1736
    101  C        -10.5480   23.6250   38.4470 C.2   259  PHE259      0.2595
    102  O        -10.9140   24.6540   39.0300 O.2   259  PHE259     -0.2718
    103  CB        -8.4100   22.4030   38.8500 C.3   259  PHE259      0.0547
    104  CG        -7.6500   23.6570   39.1540 C.ar  259  PHE259     -0.0202
    105  CD1       -7.0310   23.8240   40.3840 C.ar  259  PHE259     -0.0042
    106  CD2       -7.5840   24.6920   38.2230 C.ar  259  PHE259     -0.0042
    107  CE1       -6.3370   25.0010   40.6800 C.ar  259  PHE259     -0.0003
    108  CE2       -6.8950   25.8720   38.5130 C.ar  259  PHE259     -0.0003
    109  CZ        -6.2720   26.0250   39.7430 C.ar  259  PHE259     -0.0000
    110  N        -10.6870   23.4250   37.1370 N.am  260  ALA260     -0.1980
    111  CA       -11.3280   24.3930   36.2590 C.3   260  ALA260      0.1597
    112  C        -12.6800   24.7970   36.8190 C.2   260  ALA260      0.2287
    113  O        -12.9650   25.9810   36.9610 O.2   260  ALA260     -0.2864
    114  CB       -11.4770   23.8230   34.8580 C.3   260  ALA260      0.0319
    115  N        -11.6470   28.6570   38.3330 N.3   264  THR264     -0.1218
    116  CA       -11.9030   29.6280   37.2770 C.3   264  THR264      0.1862
    117  C        -13.2770   30.3030   37.4350 C.2   264  THR264      0.2287
    118  O        -13.3890   31.5200   37.3060 O.2   264  THR264     -0.2866
    119  CB       -11.7190   28.9730   35.8800 C.3   264  THR264      0.1770
    120  OG1      -11.5020   29.9840   34.8910 O.3   264  THR264     -0.2211
    121  CG2      -12.9260   28.1410   35.4940 C.3   264  THR264      0.0375
    122  N         -9.2100   35.8440   32.3140 N.3   324  ILE324     -0.1231
    123  CA        -8.3440   35.1590   33.2700 C.3   324  ILE324      0.1692
    124  C         -7.1960   34.3570   32.6530 C.2   324  ILE324      0.2592
    125  O         -6.2810   33.9380   33.3620 O.2   324  ILE324     -0.2718
    126  CB        -9.1300   34.3140   34.3030 C.3   324  ILE324      0.0266
    127  CG1       -9.6360   33.0120   33.6940 C.3   324  ILE324      0.0019
    128  CG2      -10.2600   35.1350   34.9180 C.3   324  ILE324      0.0020
    129  CD1       -9.2800   31.8240   34.5490 C.3   324  ILE324      0.0001
    130  N         -7.2340   34.1570   31.3420 N.am  325  ALA325     -0.1966
    131  CA        -6.1230   33.5070   30.6570 C.3   325  ALA325      0.1728
    132  C         -5.0090   34.5030   30.2970 C.2   325  ALA325      0.2616
    133  O         -3.8410   34.1200   30.1790 O.2   325  ALA325     -0.2715
    134  CB        -6.6050   32.7610   29.4340 C.3   325  ALA325      0.0334
    135  N         -5.3700   35.7730   30.1340 N.am  326  MET326     -0.1963
    136  CA        -4.3970   36.8500   29.8840 C.3   326  MET326      0.1736
    137  C         -3.7630   36.7600   28.4970 C.2   326  MET326      0.2616
    138  O         -3.7680   37.7240   27.7380 O.2   326  MET326     -0.2715
    139  CB        -3.3010   36.8810   30.9590 C.3   326  MET326      0.0427
    140  CG        -3.7960   37.1520   32.3710 C.3   326  MET326      0.0599
    141  SD        -2.4560   37.5740   33.5270 S.3   326  MET326     -0.1393
    142  CE        -1.5220   36.0490   33.6070 C.3   326  MET326      0.0692
    143  N         -3.2250   35.5880   28.1870 N.am  327  ARG327     -0.1977
    144  CA        -2.5470   35.3320   26.9340 C.3   327  ARG327      0.1597
    145  C         -3.0000   33.9970   26.3490 C.2   327  ARG327      0.2287
    146  O         -3.0910   32.9860   27.0530 O.2   327  ARG327     -0.2864
    147  CB        -1.0290   35.3320   27.1500 C.3   327  ARG327      0.0334
    148  CG        -0.3540   36.6460   26.8170 C.3   327  ARG327      0.0492
    149  CD         0.5260   37.1360   27.9410 C.3   327  ARG327      0.2205
    150  NE         1.7860   36.4150   28.0860 N.pl3 327  ARG327     -0.0865
    151  CZ         2.9970   36.9640   27.9740 C.cat 327  ARG327      0.5346
    152  NH1        3.1440   38.2570   27.6980 N.pl3 327  ARG327      0.1354
    153  NH2        4.0770   36.2110   28.1480 N.pl3 327  ARG327      0.1354
    154  N         -1.7970   31.2190   23.5780 N.3   329  GLU329     -0.1245
    155  CA        -0.5970   30.8540   22.8380 C.3   329  GLU329      0.1567
    156  C         -0.6650   29.5210   22.1290 C.2   329  GLU329      0.2260
    157  O         -1.4930   28.6630   22.4400 O.2   329  GLU329     -0.2867
    158  CB         0.6960   31.0010   23.6620 C.3   329  GLU329      0.0388
    159  CG         0.6040   30.6490   25.1260 C.3   329  GLU329      0.1160
    160  CD         1.9680   30.6740   25.8200 C.2   329  GLU329      0.3649
    161  OE1        2.5930   31.7540   25.9170 O.co2 329  GLU329     -0.2457
    162  OE2        2.4010   29.5950   26.2820 O.co2 329  GLU329     -0.2457
    163  N        -12.0020   27.2450   24.9300 N.3   397  CYS397     -0.1235
    164  CA       -12.4240   26.7220   26.2310 C.3   397  CYS397      0.1677
    165  C        -13.5310   25.6760   26.1140 C.2   397  CYS397      0.2270
    166  O        -14.6760   26.0020   25.7920 O.2   397  CYS397     -0.2867
    167  CB       -12.8910   27.8520   27.1390 C.3   397  CYS397      0.0956
    168  SG       -13.1890   27.2910   28.8310 S.3   397  CYS397     -0.0801
    169  N          0.2920   33.3720   36.8820 N.3   436  GLY436     -0.1210
    170  CA         0.0250   32.7010   35.6080 C.3   436  GLY436      0.1956
    171  C         -1.3870   32.9010   35.0770 C.2   436  GLY436      0.2611
    172  O         -1.5870   33.0290   33.8710 O.2   436  GLY436     -0.2717
    173  N         -2.3710   32.9090   35.9730 N.am  437  LEU437     -0.1979
    174  CA        -3.7420   33.2430   35.5980 C.3   437  LEU437      0.1596
    175  C         -4.1880   34.4730   36.3680 C.2   437  LEU437      0.2287
    176  O         -3.8530   34.6350   37.5410 O.2   437  LEU437     -0.2864
    177  CB        -4.7100   32.0880   35.8750 C.3   437  LEU437      0.0297
    178  CG        -4.4280   30.6220   35.5290 C.3   437  LEU437      0.0022
    179  CD1       -5.7200   29.8400   35.7340 C.3   437  LEU437      0.0001
    180  CD2       -3.9080   30.4320   34.1180 C.3   437  LEU437      0.0001
@<TRIPOS>BOND
     1   156   157    2
     2   156   155    1
     3    12    13    1
     4   155   154    1
     5   155   158    1
     6    15    14    2
     7    13    14    1
     8    13    16    1
     9   158   159    1
    10    14    23   am
    11    17    16    1
    12    17    18    1
    13    23    24    1
    14    21    20    1
    15   163   164    1
    16   159   160    1
    17    24    25    1
    18    24    27    1
    19    19    20    2
    20    19    18    1
    21    20    22    1
    22   166   165    2
    23   160   161   ar
    24   160   162   ar
    25    25    26    2
    26    28    27    1
    27    28    29    1
    28   165   164    1
    29    29    30    1
    30    33    31    1
    31   164   167    1
    32    51    50    2
    33   145   144    1
    34   145   146    2
    35    50    49    1
    36    31    30    2
    37    31    32    1
    38   148   147    1
    39   148   149    1
    40   144   147    1
    41   144   143    1
    42   167   168    1
    43    45    44    2
    44   152   151    1
    45   138   137    2
    46    49    48    1
    47    49    52    1
    48   149   150    1
    49   151   150    2
    50   151   153    1
    51    44    48   am
    52    44    43    1
    53   143   137   am
    54    43    42    1
    55    43    46    1
    56   137   136    1
    57    52    53    1
    58    52    54    1
    59   134   131    1
    60    53    55    1
    61    46    47    1
    62   136   135    1
    63   136   139    1
    64   135   132   am
    65   133   132    2
    66     4     3    2
    67   132   131    1
    68   131   130    1
    69   139   140    1
    70     8    10   ar
    71     8     6   ar
    72   130   124   am
    73    10    11   ar
    74     3     2    1
    75     5     2    1
    76     5     6    1
    77    37    36    2
    78     2     1    1
    79   122   123    1
    80     6     7   ar
    81   140   141    1
    82    97    95    1
    83   124   123    1
    84   124   125    2
    85    11     9   ar
    86    36    35    1
    87    96    95    1
    88    96    98    1
    89   123   126    1
    90    95    92    1
    91   141   142    1
    92     7     9   ar
    93   127   126    1
    94   127   129    1
    95   172   171    2
    96   180   178    1
    97    35    34    1
    98    35    38    1
    99   126   128    1
   100   114   111    1
   101   120   119    1
   102    92    93    1
   103    92    91    1
   104   171   170    1
   105   171   173   am
   106    38    39    1
   107    93    94    2
   108   121   119    1
   109   178   179    1
   110   178   177    1
   111   174   177    1
   112   174   173    1
   113   174   175    1
   114   170   169    1
   115    41    40    1
   116    91    85   am
   117   119   116    1
   118   111   112    1
   119   111   110    1
   120   175   176    2
   121    39    40    1
   122   112   113    2
   123    82    80   ar
   124    82    81   ar
   125   110   101   am
   126    85    86    2
   127    85    84    1
   128    83    84    1
   129   116   117    1
   130   116   115    1
   131   118   117    2
   132    80    78   ar
   133    84    87    1
   134    81    79   ar
   135    87    89    1
   136    87    88    1
   137   106   108   ar
   138   106   104   ar
   139    70    69    1
   140   101   102    2
   141   101   100    1
   142    71    69    1
   143   108   109   ar
   144   103   104    1
   145   103   100    1
   146    78    77   ar
   147    99   100    1
   148    90    88    1
   149   104   105   ar
   150    69    68    1
   151    79    77   ar
   152   109   107   ar
   153    77    76    1
   154    63    61    1
   155   105   107   ar
   156    68    65    1
   157    72    73    1
   158    59    58    2
   159    61    62    1
   160    61    60    1
   161    76    73    1
   162    65    64    1
   163    65    66    1
   164    73    74    1
   165    58    64   am
   166    58    57    1
   167    60    57    1
   168    66    67    2
   169    75    74    2
   170    57    56    1
