@<TRIPOS>MOLECULE
tmp/2v0nA00.pdb
 94 88 0 0 0
SMALL
GASTEIGER

@<TRIPOS>ATOM
      1  N         79.6830   53.5120   62.4050 N.3   357  VAL357     -0.1231
      2  CA        78.4340   53.6720   63.1070 C.3   357  VAL357      0.1692
      3  C         78.6870   53.2340   64.5680 C.2   357  VAL357      0.2591
      4  O         79.6120   52.4850   64.8220 O.2   357  VAL357     -0.2718
      5  CB        77.3760   52.8250   62.3680 C.3   357  VAL357      0.0266
      6  CG1       76.5450   52.0200   63.3050 C.3   357  VAL357      0.0020
      7  CG2       76.5420   53.7070   61.4970 C.3   357  VAL357      0.0020
      8  N         77.9180   53.7130   65.5340 N.am  358  ARG358     -0.1980
      9  CA        78.2200   53.3830   66.9330 C.3   358  ARG358      0.1597
     10  C         77.8040   51.9650   67.3100 C.2   358  ARG358      0.2287
     11  O         76.9580   51.3650   66.6750 O.2   358  ARG358     -0.2864
     12  CB        77.5510   54.3800   67.8810 C.3   358  ARG358      0.0334
     13  CG        78.0770   55.7750   67.7550 C.3   358  ARG358      0.0492
     14  CD        77.3700   56.7280   68.6800 C.3   358  ARG358      0.2205
     15  NE        77.7180   58.1120   68.3610 N.pl3 358  ARG358     -0.0865
     16  CZ        77.4140   59.1840   69.0960 C.cat 358  ARG358      0.5346
     17  NH1       76.7360   59.0810   70.2100 N.pl3 358  ARG358      0.1354
     18  NH2       77.8130   60.3790   68.7020 N.pl3 358  ARG358      0.1354
     19  N         75.9690   51.0030   69.7280 N.3   360  ILE360     -0.1231
     20  CA        74.5670   50.9830   70.1610 C.3   360  ILE360      0.1692
     21  C         73.6250   50.8800   68.9650 C.2   360  ILE360      0.2592
     22  O         72.4480   50.6000   69.1280 O.2   360  ILE360     -0.2718
     23  CB        74.2180   52.2540   71.0100 C.3   360  ILE360      0.0266
     24  CG1       72.9040   52.0990   71.7890 C.3   360  ILE360      0.0019
     25  CG2       74.1190   53.5060   70.1340 C.3   360  ILE360      0.0020
     26  CD1       72.8980   50.9850   72.8490 C.3   360  ILE360      0.0001
     27  N         74.1250   51.1100   67.7590 N.am  361  ASP361     -0.1974
     28  CA        73.2800   50.9950   66.5830 C.3   361  ASP361      0.1709
     29  C         73.1860   49.5890   66.0820 C.2   361  ASP361      0.2293
     30  O         74.1080   48.8100   66.2340 O.2   361  ASP361     -0.2864
     31  CB        73.8040   51.8940   65.4720 C.3   361  ASP361      0.1436
     32  CG        73.7260   53.3740   65.8480 C.2   361  ASP361      0.3671
     33  OD1       72.6880   53.7880   66.4350 O.co2 361  ASP361     -0.2456
     34  OD2       74.7010   54.1130   65.5690 O.co2 361  ASP361     -0.2456
     35  N         68.7490   53.2220   64.6660 N.3   375  MET375     -0.1231
     36  CA        69.4340   54.1170   65.5930 C.3   375  MET375      0.1687
     37  C         68.5790   54.5280   66.7980 C.2   375  MET375      0.2434
     38  O         67.7710   55.4210   66.7130 O.2   375  MET375     -0.2733
     39  CB        69.8730   55.3660   64.8360 C.3   375  MET375      0.0400
     40  CG        71.0170   55.0770   63.8540 C.3   375  MET375      0.0596
     41  SD        70.9070   56.0890   62.3530 S.3   375  MET375     -0.1393
     42  CE        69.2690   55.7300   61.7120 C.3   375  MET375      0.0692
     43  N         68.7800   53.8900   67.9390 N.am  376  PRO376     -0.2729
     44  CA        68.0120   54.2760   69.1080 C.3   376  PRO376      0.1401
     45  C         68.3380   55.6780   69.5670 C.2   376  PRO376      0.2269
     46  O         69.4500   56.1610   69.3650 O.2   376  PRO376     -0.2865
     47  CB        68.4810   53.2990   70.1810 C.3   376  PRO376      0.0296
     48  CG        69.1510   52.1950   69.4400 C.3   376  PRO376      0.0237
     49  CD        69.7340   52.8110   68.2370 C.3   376  PRO376      0.0939
     50  N         67.5090   58.6660   68.6280 N.3   378  THR378     -0.1218
     51  CA        67.9990   59.4890   67.5310 C.3   378  THR378      0.1862
     52  C         66.8140   60.0330   66.7250 C.2   378  THR378      0.2287
     53  O         65.8510   59.3100   66.4650 O.2   378  THR378     -0.2866
     54  CB        68.9440   58.6770   66.6140 C.3   378  THR378      0.1770
     55  OG1       69.9210   57.9990   67.4130 O.3   378  THR378     -0.2211
     56  CG2       69.6640   59.5850   65.5680 C.3   378  THR378      0.0375
     57  N         69.6570   64.2790   63.0210 N.3   382  ASP382     -0.1239
     58  CA        70.9010   63.6110   63.2730 C.3   382  ASP382      0.1674
     59  C         71.0420   62.3910   62.3630 C.2   382  ASP382      0.2266
     60  O         72.1490   62.0440   61.9260 O.2   382  ASP382     -0.2867
     61  CB        71.0030   63.1960   64.7420 C.3   382  ASP382      0.1410
     62  CG        71.4350   64.3680   65.7050 C.2   382  ASP382      0.3668
     63  OD1       72.2110   65.2940   65.3210 O.co2 382  ASP382     -0.2456
     64  OD2       71.0300   64.3180   66.8910 O.co2 382  ASP382     -0.2456
     65  N         72.4260   63.4230   59.0340 N.3   385  ARG385     -0.1231
     66  CA        73.8790   63.5400   59.1820 C.3   385  ARG385      0.1694
     67  C         74.5810   62.1800   59.0420 C.2   385  ARG385      0.2591
     68  O         75.5540   62.0260   58.3060 O.2   385  ARG385     -0.2718
     69  CB        74.2390   64.2020   60.5170 C.3   385  ARG385      0.0321
     70  CG        74.4750   65.7010   60.3970 C.3   385  ARG385      0.0489
     71  CD        74.7950   66.3400   61.7500 C.3   385  ARG385      0.2205
     72  NE        73.5890   66.4470   62.5640 N.pl3 385  ARG385     -0.0865
     73  CZ        72.6800   67.4100   62.4430 C.cat 385  ARG385      0.5346
     74  NH1       72.8380   68.3670   61.5470 N.pl3 385  ARG385      0.1354
     75  NH2       71.6030   67.4250   63.2070 N.pl3 385  ARG385      0.1354
     76  N         74.0710   61.1940   59.7450 N.am  386  ILE386     -0.1980
     77  CA        74.6800   59.8700   59.7410 C.3   386  ILE386      0.1595
     78  C         74.6310   59.2360   58.3620 C.2   386  ILE386      0.2287
     79  O         75.5730   58.5900   57.9360 O.2   386  ILE386     -0.2864
     80  CB        73.9430   58.9630   60.7080 C.3   386  ILE386      0.0276
     81  CG1       74.0740   59.5210   62.1350 C.3   386  ILE386      0.0022
     82  CG2       74.4480   57.5440   60.6150 C.3   386  ILE386      0.0022
     83  CD1       73.4620   58.6590   63.1780 C.3   386  ILE386      0.0001
     84  N         77.2990   60.7760   56.0510 N.3   389  ARG389     -0.1245
     85  CA        78.5970   60.2970   56.3930 C.3   389  ARG389      0.1563
     86  C         78.8440   58.9180   55.7960 C.2   389  ARG389      0.2260
     87  O         79.8410   58.7010   55.1040 O.2   389  ARG389     -0.2867
     88  CB        78.6900   60.2360   57.9030 C.3   389  ARG389      0.0307
     89  CG        80.0720   59.9850   58.4640 C.3   389  ARG389      0.0489
     90  CD        80.0340   60.1570   59.9730 C.3   389  ARG389      0.2205
     91  NE        79.5820   58.9510   60.6580 N.pl3 389  ARG389     -0.0865
     92  CZ        78.8260   58.9430   61.7470 C.cat 389  ARG389      0.5346
     93  NH1       78.3780   60.0680   62.2890 N.pl3 389  ARG389      0.1354
     94  NH2       78.4990   57.7960   62.3030 N.pl3 389  ARG389      0.1354
@<TRIPOS>BOND
     1    87    86    2
     2    86    85    1
     3    84    85    1
     4    85    88    1
     5    88    89    1
     6    79    78    2
     7    68    67    2
     8    78    77    1
     9    89    90    1
    10    65    66    1
    11    67    66    1
    12    67    76   am
    13    66    69    1
    14    77    76    1
    15    77    80    1
    16    90    91    1
    17    70    69    1
    18    70    71    1
    19    82    80    1
    20    91    92    2
    21    80    81    1
    22     7     5    1
    23    74    73    1
    24    42    41    1
    25    92    93    1
    26    92    94    1
    27    71    72    1
    28    60    59    2
    29    81    83    1
    30    41    40    1
    31    59    58    1
    32     5     2    1
    33     5     6    1
    34     1     2    1
    35    73    72    2
    36    73    75    1
    37    57    58    1
    38     2     3    1
    39    58    61    1
    40    40    39    1
    41     3     4    2
    42     3     8   am
    43    35    36    1
    44    61    62    1
    45    39    36    1
    46    63    62   ar
    47    31    32    1
    48    31    28    1
    49     8     9    1
    50    56    54    1
    51    34    32   ar
    52    36    37    1
    53    62    64   ar
    54    32    33   ar
    55    29    30    2
    56    29    28    1
    57    53    52    2
    58    28    27    1
    59    54    55    1
    60    54    51    1
    61    11    10    2
    62    38    37    2
    63    52    51    1
    64    37    43   am
    65     9    10    1
    66     9    12    1
    67    51    50    1
    68    13    12    1
    69    13    14    1
    70    27    21   am
    71    43    49    1
    72    43    44    1
    73    49    48    1
    74    15    14    1
    75    15    16    2
    76    18    16    1
    77    21    22    2
    78    21    20    1
    79    16    17    1
    80    44    45    1
    81    44    47    1
    82    46    45    2
    83    48    47    1
    84    19    20    1
    85    25    23    1
    86    20    23    1
    87    23    24    1
    88    24    26    1
