@<TRIPOS>MOLECULE
tmp/2v0nA02.pdb
 145 138 0 0 0
SMALL
GASTEIGER

@<TRIPOS>ATOM
      1  N         76.5120   35.4840   54.9250 N.3   293  LEU293     -0.1245
      2  CA        77.4300   36.1750   54.0230 C.3   293  LEU293      0.1561
      3  C         78.1420   37.3730   54.6770 C.2   293  LEU293      0.2260
      4  O         79.3540   37.5150   54.5520 O.2   293  LEU293     -0.2867
      5  CB        76.6900   36.6160   52.7460 C.3   293  LEU293      0.0270
      6  CG        77.5020   37.4310   51.7310 C.3   293  LEU293      0.0019
      7  CD1       78.7960   36.7160   51.3960 C.3   293  LEU293      0.0001
      8  CD2       76.7260   37.7450   50.4510 C.3   293  LEU293      0.0001
      9  N         70.2110   51.0400   49.8650 N.3   326  ASP326     -0.1225
     10  CA        70.1370   50.1010   48.7500 C.3   326  ASP326      0.1805
     11  C         71.2300   50.4330   47.7450 C.2   326  ASP326      0.2598
     12  O         71.3680   51.5750   47.3150 O.2   326  ASP326     -0.2718
     13  CB        68.7650   50.1600   48.0930 C.3   326  ASP326      0.1424
     14  CG        68.6780   49.3120   46.8260 C.2   326  ASP326      0.3668
     15  OD1       69.4380   49.6050   45.8810 O.co2 326  ASP326     -0.2456
     16  OD2       67.8460   48.3700   46.7550 O.co2 326  ASP326     -0.2456
     17  N         71.9900   49.4190   47.3570 N.am  327  ILE327     -0.1966
     18  CA        73.1400   49.6160   46.4920 C.3   327  ILE327      0.1727
     19  C         72.6950   49.8920   45.0550 C.2   327  ILE327      0.2616
     20  O         71.7730   49.2460   44.5420 O.2   327  ILE327     -0.2715
     21  CB        74.0550   48.3830   46.5120 C.3   327  ILE327      0.0290
     22  CG1       74.4200   48.0230   47.9580 C.3   327  ILE327      0.0022
     23  CG2       75.3050   48.6220   45.6570 C.3   327  ILE327      0.0023
     24  CD1       75.5960   47.0880   48.0580 C.3   327  ILE327      0.0001
     25  N         73.3580   50.8510   44.4150 N.am  328  ASP328     -0.1957
     26  CA        72.9870   51.2730   43.0770 C.3   328  ASP328      0.1840
     27  C         73.5810   50.3350   42.0220 C.2   328  ASP328      0.2622
     28  O         74.7340   49.9230   42.1290 O.2   328  ASP328     -0.2715
     29  CB        73.4800   52.6930   42.8060 C.3   328  ASP328      0.1450
     30  CG        72.8810   53.7080   43.7280 C.2   328  ASP328      0.3671
     31  OD1       71.6580   53.6470   43.9800 O.co2 328  ASP328     -0.2456
     32  OD2       73.6420   54.5900   44.1920 O.co2 328  ASP328     -0.2456
     33  N         72.7900   50.0280   41.0000 N.am  329  PHE329     -0.1960
     34  CA        73.2510   49.2680   39.8350 C.3   329  PHE329      0.1771
     35  C         73.8700   47.9140   40.1850 C.2   329  PHE329      0.2620
     36  O         74.7350   47.3890   39.4680 O.2   329  PHE329     -0.2715
     37  CB        74.2540   50.0820   39.0320 C.3   329  PHE329      0.0574
     38  CG        73.7490   51.4110   38.5980 C.ar  329  PHE329     -0.0200
     39  CD1       72.6880   51.5030   37.6960 C.ar  329  PHE329     -0.0042
     40  CD2       74.3670   52.5840   39.0560 C.ar  329  PHE329     -0.0042
     41  CE1       72.2360   52.7450   37.2650 C.ar  329  PHE329     -0.0003
     42  CE2       73.9240   53.8370   38.6310 C.ar  329  PHE329     -0.0003
     43  CZ        72.8560   53.9170   37.7280 C.ar  329  PHE329     -0.0000
     44  N         73.4000   47.3420   41.2830 N.am  330  PHE330     -0.1960
     45  CA        73.9430   46.0990   41.7630 C.3   330  PHE330      0.1771
     46  C         73.7560   45.0000   40.7500 C.2   330  PHE330      0.2619
     47  O         74.6070   44.1340   40.6600 O.2   330  PHE330     -0.2715
     48  CB        73.3210   45.6970   43.0930 C.3   330  PHE330      0.0574
     49  CG        74.0680   44.6070   43.7710 C.ar  330  PHE330     -0.0200
     50  CD1       75.2980   44.8590   44.3430 C.ar  330  PHE330     -0.0042
     51  CD2       73.5740   43.3230   43.7990 C.ar  330  PHE330     -0.0042
     52  CE1       76.0200   43.8510   44.9520 C.ar  330  PHE330     -0.0003
     53  CE2       74.2850   42.3120   44.4070 C.ar  330  PHE330     -0.0003
     54  CZ        75.5150   42.5790   44.9900 C.ar  330  PHE330     -0.0000
     55  N         72.6670   45.0360   39.9800 N.am  331  LYS331     -0.1977
     56  CA        72.4530   44.0450   38.9240 C.3   331  LYS331      0.1596
     57  C         73.5390   44.1240   37.8490 C.2   331  LYS331      0.2287
     58  O         73.9940   43.0940   37.3570 O.2   331  LYS331     -0.2864
     59  CB        71.0720   44.1840   38.2860 C.3   331  LYS331      0.0298
     60  CG        70.6680   42.9750   37.4420 C.3   331  LYS331      0.0038
     61  CD        69.6240   42.6970   37.2150 C.3   331  LYS331      0.0206
     62  CE        69.6900   41.1800   37.1730 C.3   331  LYS331      0.1093
     63  NZ        69.8710   40.6530   35.7950 N.3   331  LYS331     -0.1314
     64  N         76.6040   42.0990   39.1130 N.3   334  ASN334     -0.1240
     65  CA        76.4790   40.6590   38.9220 C.3   334  ASN334      0.1653
     66  C         76.6520   40.2860   37.4550 C.2   334  ASN334      0.2266
     67  O         77.3310   39.3110   37.1450 O.2   334  ASN334     -0.2867
     68  CB        75.1430   40.1370   39.4470 C.3   334  ASN334      0.1155
     69  CG        75.0990   40.0340   40.9690 C.2   334  ASN334      0.2627
     70  OD1       76.1160   39.8240   41.6390 O.2   334  ASN334     -0.2716
     71  ND2       73.9030   40.1600   41.5150 N.am  334  ASN334     -0.0877
     72  N         78.8000   36.6570   40.2240 N.3   339  HIS339     -0.1241
     73  CA        78.3490   36.6590   41.6230 C.3   339  HIS339      0.1621
     74  C         79.4540   36.5370   42.6700 C.2   339  HIS339      0.2264
     75  O         79.2750   37.0090   43.7850 O.2   339  HIS339     -0.2867
     76  CB        77.2710   35.5870   41.8590 C.3   339  HIS339      0.0745
     77  CG        75.9550   35.9150   41.2170 C.ar  339  HIS339      0.0817
     78  ND1       75.7790   35.9390   39.8470 N.ar  339  HIS339     -0.2268
     79  CD2       74.7580   36.2540   41.7550 C.ar  339  HIS339      0.1154
     80  CE1       74.5290   36.2680   39.5700 C.ar  339  HIS339      0.1986
     81  NE2       73.8900   36.4690   40.7090 N.ar  339  HIS339     -0.2212
     82  N         80.1150   40.1290   43.1780 N.3   342  GLY342     -0.1210
     83  CA        78.9500   40.7090   43.8380 C.3   342  GLY342      0.1956
     84  C         78.9940   40.4740   45.3340 C.2   342  GLY342      0.2611
     85  O         78.6920   41.3640   46.1130 O.2   342  GLY342     -0.2717
     86  N         79.4020   39.2740   45.7290 N.am  343  ASP343     -0.1973
     87  CA        79.4890   38.9010   47.1360 C.3   343  ASP343      0.1709
     88  C         80.6410   39.6050   47.8270 C.2   343  ASP343      0.2293
     89  O         80.4950   40.0240   48.9720 O.2   343  ASP343     -0.2864
     90  CB        79.6330   37.3780   47.2880 C.3   343  ASP343      0.1436
     91  CG        78.4310   36.6140   46.7430 C.2   343  ASP343      0.3671
     92  OD1       77.3800   37.2480   46.4760 O.co2 343  ASP343     -0.2456
     93  OD2       78.5400   35.3800   46.5780 O.co2 343  ASP343     -0.2456
     94  N         79.3440   43.0150   48.7230 N.3   346  LEU346     -0.1245
     95  CA        78.4360   42.9780   49.8670 C.3   346  LEU346      0.1561
     96  C         79.1960   42.7980   51.1840 C.2   346  LEU346      0.2260
     97  O         78.9260   43.4970   52.1540 O.2   346  LEU346     -0.2867
     98  CB        77.4080   41.8610   49.7000 C.3   346  LEU346      0.0270
     99  CG        76.3500   42.1280   48.6330 C.3   346  LEU346      0.0019
    100  CD1       75.5710   40.8580   48.3380 C.3   346  LEU346      0.0001
    101  CD2       75.4310   43.2560   49.0680 C.3   346  LEU346      0.0001
    102  N         71.1180   43.1040   57.6720 N.3   365  ARG365     -0.1245
    103  CA        70.8500   42.6790   56.3120 C.3   365  ARG365      0.1563
    104  C         69.3560   42.5270   56.2000 C.2   365  ARG365      0.2260
    105  O         68.7400   41.7800   56.9450 O.2   365  ARG365     -0.2867
    106  CB        71.5260   41.3370   56.0430 C.3   365  ARG365      0.0307
    107  CG        71.2520   40.7280   54.6940 C.3   365  ARG365      0.0489
    108  CD        72.1550   41.3210   53.6420 C.3   365  ARG365      0.2205
    109  NE        71.9610   40.7040   52.3540 N.pl3 365  ARG365     -0.0865
    110  CZ        72.4600   39.5900   51.8330 C.cat 365  ARG365      0.5346
    111  NH1       71.9710   39.2860   50.6470 N.pl3 365  ARG365      0.1354
    112  NH2       73.4690   38.8820   52.3170 N.pl3 365  ARG365      0.1354
    113  N         68.2370   41.1530   49.5990 N.3   368  GLY368     -0.1210
    114  CA        69.3630   40.8620   48.7190 C.3   368  GLY368      0.1956
    115  C         70.4270   41.9590   48.7220 C.2   368  GLY368      0.2611
    116  O         71.5670   41.7400   49.1210 O.2   368  GLY368     -0.2717
    117  N         70.0380   43.1550   48.3010 N.am  369  GLU369     -0.1979
    118  CA        70.9720   44.2630   48.1480 C.3   369  GLU369      0.1602
    119  C         70.6330   45.4230   49.1000 C.2   369  GLU369      0.2287
    120  O         71.2020   46.5110   48.9850 O.2   369  GLU369     -0.2864
    121  CB        70.9650   44.7390   46.6810 C.3   369  GLU369      0.0415
    122  CG        69.5470   45.0460   46.1180 C.3   369  GLU369      0.1163
    123  CD        69.4920   46.2660   45.1760 C.2   369  GLU369      0.3649
    124  OE1       70.5770   46.8280   44.8970 O.co2 369  GLU369     -0.2457
    125  OE2       68.3750   46.6660   44.7190 O.co2 369  GLU369     -0.2457
    126  N         66.6720   57.4380   44.4460 N.3   441  LYS441     -0.1245
    127  CA        66.9630   56.8270   43.1540 C.3   441  LYS441      0.1561
    128  C         66.4020   57.6340   41.9720 C.2   441  LYS441      0.2260
    129  O         67.1130   57.8130   41.0080 O.2   441  LYS441     -0.2867
    130  CB        66.4810   55.3810   43.1120 C.3   441  LYS441      0.0271
    131  CG        67.1700   54.4950   44.1390 C.3   441  LYS441      0.0035
    132  CD        67.0190   53.0190   43.8050 C.3   441  LYS441      0.0206
    133  CE        67.8010   52.1070   44.7770 C.3   441  LYS441      0.1093
    134  NZ        69.3080   52.3270   44.8170 N.3   441  LYS441     -0.1314
    135  N         70.3150   58.8170   41.9760 N.3   445  ARG445     -0.1245
    136  CA        71.1720   57.8990   42.7820 C.3   445  ARG445      0.1563
    137  C         72.3210   58.6010   43.4910 C.2   445  ARG445      0.2260
    138  O         72.5000   59.8080   43.3320 O.2   445  ARG445     -0.2867
    139  CB        71.6730   56.7200   41.9440 C.3   445  ARG445      0.0307
    140  CG        70.5460   55.7890   41.5360 C.3   445  ARG445      0.0489
    141  CD        70.9880   54.6970   40.5710 C.3   445  ARG445      0.2205
    142  NE        69.9270   53.7010   40.4580 N.pl3 445  ARG445     -0.0865
    143  CZ        68.8660   53.8190   39.6620 C.cat 445  ARG445      0.5346
    144  NH1       67.9470   52.8740   39.6460 N.pl3 445  ARG445      0.1354
    145  NH2       68.7100   54.8770   38.8750 N.pl3 445  ARG445      0.1354
@<TRIPOS>BOND
     1    63    62    1
     2    67    66    2
     3    62    61    1
     4    61    60    1
     5    41    39   ar
     6    41    43   ar
     7    58    57    2
     8    60    59    1
     9    66    65    1
    10    39    38   ar
    11    43    42   ar
    12    57    56    1
    13    59    56    1
    14    38    37    1
    15    38    40   ar
    16    42    40   ar
    17   145   143    1
    18    65    64    1
    19    65    68    1
    20    56    55    1
    21    37    34    1
    22    68    69    1
    23    36    35    2
    24    80    78   ar
    25    80    81   ar
    26   144   143    1
    27   143   142    2
    28    34    35    1
    29    34    33    1
    30    78    77   ar
    31    55    46   am
    32    35    44   am
    33    72    73    1
    34   142   141    1
    35   141   140    1
    36    47    46    2
    37    81    79   ar
    38    46    45    1
    39    69    71   am
    40    69    70    2
    41    33    27   am
    42   129   128    2
    43    77    79   ar
    44    77    76    1
    45    44    45    1
    46   140   139    1
    47    73    76    1
    48    73    74    1
    49    45    48    1
    50   139   136    1
    51   128   127    1
    52   135   136    1
    53    27    28    2
    54    27    26    1
    55    74    75    2
    56   136   137    1
    57    29    26    1
    58    29    30    1
    59    26    25    1
    60    48    49    1
    61   130   127    1
    62   130   131    1
    63   127   126    1
    64    82    83    1
    65   138   137    2
    66    30    31   ar
    67    30    32   ar
    68    49    51   ar
    69    49    50   ar
    70    51    53   ar
    71   132   131    1
    72   132   133    1
    73    83    84    1
    74    50    52   ar
    75    53    54   ar
    76    25    19   am
    77    20    19    2
    78   125   123   ar
    79   133   134    1
    80   124   123   ar
    81    52    54   ar
    82    19    18    1
    83   123   122    1
    84    84    86   am
    85    84    85    2
    86    23    21    1
    87    86    87    1
    88    15    14   ar
    89   122   121    1
    90    92    91   ar
    91    18    21    1
    92    18    17    1
    93    21    22    1
    94    93    91   ar
    95   121   118    1
    96    91    90    1
    97    16    14   ar
    98    14    13    1
    99    87    90    1
   100    87    88    1
   101    12    11    2
   102    17    11   am
   103    11    10    1
   104    88    89    2
   105    22    24    1
   106    13    10    1
   107   118   117    1
   108   118   119    1
   109   117   115   am
   110   100    99    1
   111    99   101    1
   112    99    98    1
   113   114   115    1
   114   114   113    1
   115   115   116    2
   116    94    95    1
   117    10     9    1
   118   120   119    2
   119    98    95    1
   120    95    96    1
   121     8     6    1
   122   111   110    1
   123    96    97    2
   124     7     6    1
   125     6     5    1
   126   110   112    1
   127   110   109    2
   128   109   108    1
   129     5     2    1
   130   108   107    1
   131     2     3    1
   132     2     1    1
   133     4     3    2
   134   107   106    1
   135   106   103    1
   136   104   103    1
   137   104   105    2
   138   103   102    1
