@<TRIPOS>MOLECULE
tmp/2v0tD00.pdb
 75 75 0 0 0
SMALL
GASTEIGER

@<TRIPOS>ATOM
      1  N         25.8200   88.2910   41.4480 N.3    28  ASN28      -0.1225
      2  CA        25.4960   88.8090   42.7760 C.3    28  ASN28       0.1785
      3  C         24.7030   90.1060   42.7290 C.2    28  ASN28       0.2598
      4  O         23.8520   90.3610   43.5830 O.2    28  ASN28      -0.2718
      5  CB        26.7670   89.0250   43.6130 C.3    28  ASN28       0.1169
      6  CG        27.3670   87.7220   44.1400 C.2    28  ASN28       0.2627
      7  OD1       26.7420   86.6590   44.0880 O.2    28  ASN28      -0.2716
      8  ND2       28.5900   87.8070   44.6610 N.am   28  ASN28      -0.0877
      9  N         24.9980   90.9310   41.7340 N.am   29  SER29      -0.1938
     10  CA        24.3960   92.2640   41.6360 C.3    29  SER29       0.2055
     11  C         23.0670   92.2380   40.9110 C.2    29  SER29       0.2644
     12  O         22.4290   93.2690   40.7920 O.2    29  SER29      -0.2714
     13  CB        25.3330   93.2230   40.9050 C.3    29  SER29       0.2130
     14  OG        25.3770   92.9340   39.5160 O.3    29  SER29      -0.2179
     15  N         22.6650   91.0580   40.4270 N.am   30  THR30      -0.1936
     16  CA        21.4780   90.9020   39.5830 C.3    30  THR30       0.2028
     17  C         20.2250   90.7820   40.4200 C.2    30  THR30       0.2643
     18  O         20.1270   89.9000   41.2820 O.2    30  THR30      -0.2714
     19  CB        21.6030   89.6520   38.6810 C.3    30  THR30       0.1808
     20  OG1       22.7830   89.7680   37.8970 O.3    30  THR30      -0.2208
     21  CG2       20.4130   89.5190   37.7670 C.3    30  THR30       0.0379
     22  N         19.2770   91.6790   40.1670 N.am   31  SER31      -0.1935
     23  CA        17.9370   91.5370   40.7070 C.3    31  SER31       0.2055
     24  C         17.1270   90.6230   39.8010 C.2    31  SER31       0.2643
     25  O         16.8620   90.9600   38.6430 O.2    31  SER31      -0.2714
     26  CB        17.2590   92.8880   40.8150 C.3    31  SER31       0.2130
     27  OG        18.0040   93.7430   41.6600 O.3    31  SER31      -0.2179
     28  N         16.7570   89.4630   40.3350 N.am   32  ILE32      -0.1963
     29  CA        15.9510   88.4690   39.6410 C.3    32  ILE32       0.1727
     30  C         14.5520   88.5280   40.2790 C.2    32  ILE32       0.2616
     31  O         14.4020   88.2810   41.4840 O.2    32  ILE32      -0.2715
     32  CB        16.5720   87.0660   39.8250 C.3    32  ILE32       0.0290
     33  CG1       17.9500   87.0030   39.1680 C.3    32  ILE32       0.0022
     34  CG2       15.6590   85.9750   39.2850 C.3    32  ILE32       0.0023
     35  CD1       18.8600   85.9000   39.7480 C.3    32  ILE32       0.0001
     36  N         13.5290   88.8810   39.5050 N.am   33  ASN33      -0.1972
     37  CA        12.2520   89.2130   40.1440 C.3    33  ASN33       0.1688
     38  C         11.1210   88.1820   40.1340 C.2    33  ASN33       0.2292
     39  O          9.9530   88.5590   40.2170 O.2    33  ASN33      -0.2864
     40  CB        11.7360   90.5790   39.6570 C.3    33  ASN33       0.1181
     41  CG        11.1330   91.4010   40.7880 C.2    33  ASN33       0.2629
     42  OD1       10.1510   92.1280   40.5870 O.2    33  ASN33      -0.2716
     43  ND2       11.7220   91.2880   41.9960 N.am   33  ASN33      -0.0877
     44  N         26.9610   84.9010   46.4950 N.3    55  SER55      -0.1202
     45  CA        26.1180   85.1340   47.6500 C.3    55  SER55       0.2020
     46  C         24.6690   85.4340   47.2740 C.2    55  SER55       0.2619
     47  O         23.8880   85.8220   48.1300 O.2    55  SER55      -0.2717
     48  CB        26.6960   86.2600   48.5130 C.3    55  SER55       0.2103
     49  OG        26.6960   87.4720   47.7920 O.3    55  SER55      -0.2182
     50  N         24.3000   85.2300   46.0080 N.am   56  HIS56      -0.1961
     51  CA        22.9130   85.4760   45.5720 C.3    56  HIS56       0.1772
     52  C         21.9890   84.4060   46.1640 C.2    56  HIS56       0.2462
     53  O         22.2560   83.2070   46.0030 O.2    56  HIS56      -0.2730
     54  CB        22.7880   85.5380   44.0330 C.3    56  HIS56       0.0785
     55  CG        21.5370   86.2180   43.5550 C.ar   56  HIS56       0.0821
     56  ND1       20.2770   85.6980   43.7650 N.ar   56  HIS56      -0.2267
     57  CD2       21.3540   87.3760   42.8690 C.ar   56  HIS56       0.1154
     58  CE1       19.3730   86.5040   43.2350 C.ar   56  HIS56       0.1986
     59  NE2       19.9990   87.5300   42.6840 N.ar   56  HIS56      -0.2212
     60  N         20.9280   84.8380   46.8890 N.am   57  PRO57      -0.2716
     61  CA        19.9670   83.9550   47.5610 C.3    57  PRO57       0.1536
     62  C         19.3510   82.9120   46.6490 C.2    57  PRO57       0.2598
     63  O         19.0350   81.8250   47.1110 O.2    57  PRO57      -0.2715
     64  CB        18.8900   84.9340   48.0530 C.3    57  PRO57       0.0310
     65  CG        19.6460   86.1680   48.3150 C.3    57  PRO57       0.0237
     66  CD        20.5980   86.2530   47.1450 C.3    57  PRO57       0.0939
     67  N         19.1920   83.2460   45.3670 N.am   58  LYS58      -0.1978
     68  CA        18.6130   82.3390   44.3440 C.3    58  LYS58       0.1596
     69  C         19.6340   81.4820   43.6050 C.2    58  LYS58       0.2287
     70  O         19.2660   80.8180   42.6300 O.2    58  LYS58      -0.2864
     71  CB        17.7720   83.1260   43.3250 C.3    58  LYS58       0.0298
     72  CG        16.6680   83.9680   43.9790 C.3    58  LYS58       0.0038
     73  CD        15.6620   84.4780   42.9830 C.3    58  LYS58       0.0206
     74  CE        14.5050   85.1200   43.7230 C.3    58  LYS58       0.1093
     75  NZ        14.0920   86.3960   43.0950 N.3    58  LYS58      -0.1314
@<TRIPOS>BOND
     1    21    19    1
     2    20    19    1
     3    25    24    2
     4    19    16    1
     5    33    35    1
     6    33    32    1
     7    34    32    1
     8    36    37    1
     9    36    30   am
    10    14    13    1
    11    16    17    1
    12    16    15    1
    13    29    32    1
    14    29    30    1
    15    29    28    1
    16    40    37    1
    17    40    41    1
    18    24    28   am
    19    24    23    1
    20    38    37    1
    21    38    39    2
    22    22    17   am
    23    22    23    1
    24    30    31    2
    25    17    18    2
    26    15    11   am
    27    42    41    2
    28    23    26    1
    29    41    43   am
    30    12    11    2
    31    26    27    1
    32    13    10    1
    33    11    10    1
    34     1     2    1
    35    10     9    1
    36     9     3   am
    37    70    69    2
    38    59    57   ar
    39    59    58   ar
    40     3     2    1
    41     3     4    2
    42     2     5    1
    43    57    55   ar
    44    73    74    1
    45    73    72    1
    46    75    74    1
    47    58    56   ar
    48    71    72    1
    49    71    68    1
    50    55    56   ar
    51    55    54    1
    52    69    68    1
    53     5     6    1
    54    54    51    1
    55     7     6    2
    56     6     8   am
    57    68    67    1
    58    67    62   am
    59    51    50    1
    60    51    52    1
    61    53    52    2
    62    50    46   am
    63    52    60   am
    64    44    45    1
    65    62    63    2
    66    62    61    1
    67    60    66    1
    68    60    61    1
    69    66    65    1
    70    46    45    1
    71    46    47    2
    72    61    64    1
    73    45    48    1
    74    49    48    1
    75    64    65    1
