@<TRIPOS>MOLECULE
tmp/2v19B02.pdb
 81 74 0 0 0
SMALL
GASTEIGER

@<TRIPOS>ATOM
      1  N         18.4130   -8.5810  -45.2200 N.3     5  LYS5       -0.1245
      2  CA        18.2270   -8.7540  -43.7970 C.3     5  LYS5        0.1561
      3  C         19.5670   -8.7200  -43.1060 C.2     5  LYS5        0.2260
      4  O         20.5390   -9.2820  -43.6070 O.2     5  LYS5       -0.2867
      5  CB        17.5430  -10.0810  -43.4830 C.3     5  LYS5        0.0271
      6  CG        17.4640  -10.3450  -41.9890 C.3     5  LYS5        0.0035
      7  CD        16.3620  -11.3220  -41.6130 C.3     5  LYS5        0.0206
      8  CE        16.2060  -11.4170  -40.0910 C.3     5  LYS5        0.1093
      9  NZ        15.6090  -12.7230  -39.6540 N.3     5  LYS5       -0.1314
     10  N         21.4050   -9.9010  -39.5330 N.3     7  VAL7       -0.1245
     11  CA        21.3530  -10.6520  -38.2900 C.3     7  VAL7        0.1561
     12  C         22.5550  -10.3240  -37.4280 C.2     7  VAL7        0.2260
     13  O         23.6220   -9.9730  -37.9280 O.2     7  VAL7       -0.2867
     14  CB        21.3050  -12.1670  -38.5300 C.3     7  VAL7        0.0252
     15  CG1       19.9780  -12.5540  -39.1340 C.3     7  VAL7        0.0019
     16  CG2       22.4580  -12.6120  -39.4100 C.3     7  VAL7        0.0019
     17  N         25.3400  -11.4740  -34.9970 N.3     9  LEU9       -0.1245
     18  CA        26.0790  -12.6540  -34.5680 C.3     9  LEU9        0.1561
     19  C         27.2270  -12.2590  -33.6800 C.2     9  LEU9        0.2260
     20  O         27.6890  -11.1240  -33.7310 O.2     9  LEU9       -0.2867
     21  CB        26.6350  -13.4060  -35.7650 C.3     9  LEU9        0.0270
     22  CG        25.5820  -14.0160  -36.6790 C.3     9  LEU9        0.0019
     23  CD1       26.2450  -14.5530  -37.9460 C.3     9  LEU9        0.0001
     24  CD2       24.8330  -15.1140  -35.9400 C.3     9  LEU9        0.0001
     25  N         30.1620  -19.7040  -39.8440 N.3    27  ARG27      -0.1231
     26  CA        28.9640  -20.3540  -39.3600 C.3    27  ARG27       0.1694
     27  C         27.7680  -19.8130  -40.1210 C.2    27  ARG27       0.2591
     28  O         26.8420  -20.5540  -40.4450 O.2    27  ARG27      -0.2718
     29  CB        28.8010  -20.1310  -37.8600 C.3    27  ARG27       0.0321
     30  CG        27.4730  -20.6170  -37.2980 C.3    27  ARG27       0.0489
     31  CD        27.2400  -22.0750  -37.5800 C.3    27  ARG27       0.2205
     32  NE        25.9900  -22.5500  -36.9950 N.pl3  27  ARG27      -0.0865
     33  CZ        24.7880  -22.3640  -37.5340 C.cat  27  ARG27       0.5346
     34  NH1       24.6530  -21.6880  -38.6670 N.pl3  27  ARG27       0.1354
     35  NH2       23.7150  -22.8600  -36.9390 N.pl3  27  ARG27       0.1354
     36  N         27.7860  -18.5160  -40.3980 N.am   28  ALA28      -0.1980
     37  CA        26.7430  -17.9090  -41.2070 C.3    28  ALA28       0.1597
     38  C         26.6190  -18.6380  -42.5340 C.2    28  ALA28       0.2287
     39  O         25.5190  -18.9950  -42.9570 O.2    28  ALA28      -0.2864
     40  CB        27.0410  -16.4520  -41.4380 C.3    28  ALA28       0.0319
     41  N         24.4230  -21.8580  -43.4700 N.3    31  THR31      -0.1203
     42  CA        22.9680  -21.9400  -43.6320 C.3    31  THR31       0.1994
     43  C         22.3650  -20.7500  -44.3660 C.2    31  THR31       0.2617
     44  O         21.2090  -20.7880  -44.7550 O.2    31  THR31      -0.2717
     45  CB        22.2420  -22.0720  -42.2750 C.3    31  THR31       0.1784
     46  OG1       22.6440  -21.0090  -41.4030 O.3    31  THR31      -0.2211
     47  CG2       22.5350  -23.4290  -41.6350 C.3    31  THR31       0.0376
     48  N         23.1310  -19.6810  -44.5200 N.am   32  LEU32      -0.1979
     49  CA        22.6160  -18.4640  -45.1370 C.3    32  LEU32       0.1596
     50  C         23.2760  -18.2290  -46.5060 C.2    32  LEU32       0.2287
     51  O         24.4780  -18.4460  -46.6710 O.2    32  LEU32      -0.2864
     52  CB        22.8680  -17.2710  -44.2170 C.3    32  LEU32       0.0297
     53  CG        22.1100  -17.2530  -42.8880 C.3    32  LEU32       0.0022
     54  CD1       22.4140  -15.9800  -42.1170 C.3    32  LEU32       0.0001
     55  CD2       20.6180  -17.3590  -43.1170 C.3    32  LEU32       0.0001
     56  N         22.6050   -9.8420  -45.7020 N.3    63  PHE63      -0.1241
     57  CA        22.4850  -10.7110  -46.8490 C.3    63  PHE63       0.1605
     58  C         21.2140  -10.4280  -47.6330 C.2    63  PHE63       0.2264
     59  O         20.2410   -9.9050  -47.0940 O.2    63  PHE63      -0.2867
     60  CB        22.5570  -12.1800  -46.4290 C.3    63  PHE63       0.0534
     61  CG        21.4780  -12.6020  -45.4730 C.ar   63  PHE63      -0.0203
     62  CD1       20.3480  -13.2580  -45.9260 C.ar   63  PHE63      -0.0042
     63  CD2       21.6090  -12.3740  -44.1140 C.ar   63  PHE63      -0.0042
     64  CE1       19.3660  -13.6740  -45.0440 C.ar   63  PHE63      -0.0003
     65  CE2       20.6280  -12.7690  -43.2380 C.ar   63  PHE63      -0.0003
     66  CZ        19.5050  -13.4260  -43.7030 C.ar   63  PHE63      -0.0000
     67  N         17.8180  -11.0620  -49.4510 N.3    65  LEU65      -0.1245
     68  CA        16.6970  -11.9810  -49.2960 C.3    65  LEU65       0.1561
     69  C         16.2540  -12.4860  -50.6590 C.2    65  LEU65       0.2260
     70  O         16.0930  -11.7030  -51.5910 O.2    65  LEU65      -0.2867
     71  CB        15.5240  -11.2900  -48.5980 C.3    65  LEU65       0.0270
     72  CG        15.6940  -11.0710  -47.0970 C.3    65  LEU65       0.0019
     73  CD1       14.4870  -10.3540  -46.5110 C.3    65  LEU65       0.0001
     74  CD2       15.9100  -12.3990  -46.3920 C.3    65  LEU65       0.0001
     75  N         10.3710  -15.9070  -52.5960 N.3    68  THR68      -0.1218
     76  CA         9.3420  -16.8810  -52.9610 C.3    68  THR68       0.1862
     77  C          8.5020  -16.3260  -54.1150 C.2    68  THR68       0.2287
     78  O          7.7030  -15.4020  -53.9360 O.2    68  THR68      -0.2866
     79  CB         8.4180  -17.2370  -51.7600 C.3    68  THR68       0.1770
     80  OG1        8.1240  -16.0550  -51.0000 O.3    68  THR68      -0.2211
     81  CG2        9.0820  -18.2870  -50.8540 C.3    68  THR68       0.0375
@<TRIPOS>BOND
     1    77    78    2
     2    77    76    1
     3    76    75    1
     4    76    79    1
     5    79    80    1
     6    79    81    1
     7    70    69    2
     8    69    68    1
     9    67    68    1
    10    68    71    1
    11    71    72    1
    12    58    59    2
    13    58    57    1
    14    72    73    1
    15    72    74    1
    16    57    60    1
    17    57    56    1
    18    51    50    2
    19    50    49    1
    20    60    61    1
    21    62    61   ar
    22    62    64   ar
    23    61    63   ar
    24     1     2    1
    25    49    48    1
    26    49    52    1
    27    64    66   ar
    28    44    43    2
    29    48    43   am
    30    43    42    1
    31    52    53    1
    32    63    65   ar
    33     2     5    1
    34     2     3    1
    35    66    65   ar
    36    42    41    1
    37    42    45    1
    38     4     3    2
    39     5     6    1
    40    55    53    1
    41    39    38    2
    42    53    54    1
    43    38    37    1
    44    45    47    1
    45    45    46    1
    46     6     7    1
    47     7     8    1
    48    40    37    1
    49    37    36    1
    50    28    27    2
    51    36    27   am
    52    27    26    1
    53     8     9    1
    54    25    26    1
    55    10    11    1
    56    16    14    1
    57    26    29    1
    58    15    14    1
    59    34    33    1
    60    14    11    1
    61    11    12    1
    62    23    22    1
    63    13    12    2
    64    29    30    1
    65    31    30    1
    66    31    32    1
    67    33    32    2
    68    33    35    1
    69    22    24    1
    70    22    21    1
    71    21    18    1
    72    17    18    1
    73    18    19    1
    74    20    19    2
