@<TRIPOS>MOLECULE
tmp/2v1oC00.pdb
 92 91 0 0 0
SMALL
GASTEIGER

@<TRIPOS>ATOM
      1  N        -23.5300   14.2550  -63.8030 N.3    16  ASN16      -0.1225
      2  CA       -22.7450   13.0370  -63.9750 C.3    16  ASN16       0.1785
      3  C        -21.2680   13.3260  -64.1070 C.2    16  ASN16       0.2597
      4  O        -20.8690   14.2500  -64.8200 O.2    16  ASN16      -0.2718
      5  CB       -23.2140   12.2530  -65.1990 C.3    16  ASN16       0.1169
      6  CG       -24.6330   11.7520  -65.0580 C.2    16  ASN16       0.2627
      7  OD1      -25.4270   11.8480  -65.9930 O.2    16  ASN16      -0.2716
      8  ND2      -24.9720   11.2430  -63.8790 N.am   16  ASN16      -0.0877
      9  N        -20.4640   12.5190  -63.4270 N.am   17  VAL17      -0.1966
     10  CA       -19.0180   12.7230  -63.3770 C.3    17  VAL17       0.1727
     11  C        -18.3980   12.5480  -64.7660 C.2    17  VAL17       0.2616
     12  O        -18.7310   11.6040  -65.4840 O.2    17  VAL17      -0.2715
     13  CB       -18.3640   11.7940  -62.3130 C.3    17  VAL17       0.0290
     14  CG1      -16.8260   11.8270  -62.3860 C.3    17  VAL17       0.0023
     15  CG2      -18.8440   12.2070  -60.9230 C.3    17  VAL17       0.0023
     16  N        -17.5300   13.4880  -65.1390 N.am   18  HIS18      -0.1959
     17  CA       -16.7890   13.4090  -66.4120 C.3    18  HIS18       0.1787
     18  C        -15.8750   12.1910  -66.4280 C.2    18  HIS18       0.2620
     19  O        -15.2350   11.8820  -65.4260 O.2    18  HIS18      -0.2715
     20  CB       -15.9450   14.6740  -66.6210 C.3    18  HIS18       0.0785
     21  CG       -16.7500   15.9080  -66.8860 C.ar   18  HIS18       0.0821
     22  ND1      -17.5400   16.0530  -68.0050 N.ar   18  HIS18      -0.2267
     23  CD2      -16.8570   17.0690  -66.1960 C.ar   18  HIS18       0.1154
     24  CE1      -18.1160   17.2420  -67.9840 C.ar   18  HIS18       0.1986
     25  NE2      -17.7140   17.8800  -66.8990 N.ar   18  HIS18      -0.2212
     26  N        -15.8210   11.4910  -67.5610 N.am   19  GLY19      -0.1954
     27  CA       -14.8480   10.4010  -67.7440 C.3    19  GLY19       0.1869
     28  C        -13.4210   10.8140  -67.3920 C.2    19  GLY19       0.2309
     29  O        -12.6920   10.0580  -66.7460 O.2    19  GLY19      -0.2863
     30  N        -12.3950   10.4350  -63.7770 N.3    22  ILE22      -0.1245
     31  CA       -12.1270    9.0550  -63.3810 C.3    22  ILE22       0.1561
     32  C        -10.7890    8.5870  -63.9680 C.2    22  ILE22       0.2260
     33  O        -10.0000    7.9450  -63.2790 O.2    22  ILE22      -0.2867
     34  CB       -13.3200    8.1080  -63.7390 C.3    22  ILE22       0.0252
     35  CG1      -14.6270    8.5410  -63.0240 C.3    22  ILE22       0.0019
     36  CG2      -12.9900    6.6300  -63.4480 C.3    22  ILE22       0.0019
     37  CD1      -14.5730    8.6410  -61.5010 C.3    22  ILE22       0.0001
     38  N        -13.7970    0.1090  -70.9310 N.3    57  ASP57      -0.1225
     39  CA       -15.2060    0.4630  -71.0820 C.3    57  ASP57       0.1805
     40  C        -15.7590    1.0420  -69.7900 C.2    57  ASP57       0.2598
     41  O        -15.5420    0.4830  -68.7030 O.2    57  ASP57      -0.2718
     42  CB       -16.0340   -0.7680  -71.4610 C.3    57  ASP57       0.1424
     43  CG       -15.7130   -1.2960  -72.8420 C.2    57  ASP57       0.3668
     44  OD1      -15.5410   -0.4880  -73.7810 O.co2  57  ASP57      -0.2456
     45  OD2      -15.6470   -2.5340  -72.9820 O.co2  57  ASP57      -0.2456
     46  N        -16.4970    2.1410  -69.9080 N.am   58  PHE58      -0.1962
     47  CA       -17.1930    2.7140  -68.7590 C.3    58  PHE58       0.1771
     48  C        -18.6320    2.1690  -68.6840 C.2    58  PHE58       0.2619
     49  O        -19.4510    2.4110  -69.5680 O.2    58  PHE58      -0.2715
     50  CB       -17.1190    4.2460  -68.7870 C.3    58  PHE58       0.0574
     51  CG       -15.7330    4.7800  -68.4970 C.ar   58  PHE58      -0.0200
     52  CD1      -15.3830    5.1690  -67.2040 C.ar   58  PHE58      -0.0042
     53  CD2      -14.7750    4.8590  -69.5070 C.ar   58  PHE58      -0.0042
     54  CE1      -14.0960    5.6540  -66.9280 C.ar   58  PHE58      -0.0003
     55  CE2      -13.4890    5.3240  -69.2400 C.ar   58  PHE58      -0.0003
     56  CZ       -13.1510    5.7240  -67.9470 C.ar   58  PHE58      -0.0000
     57  N        -18.9040    1.4220  -67.6180 N.am   59  LEU59      -0.1963
     58  CA       -20.1040    0.5820  -67.5090 C.3    59  LEU59       0.1728
     59  C        -21.3010    1.2840  -66.8830 C.2    59  LEU59       0.2617
     60  O        -22.4570    0.9540  -67.1860 O.2    59  LEU59      -0.2715
     61  CB       -19.7870   -0.6860  -66.6970 C.3    59  LEU59       0.0311
     62  CG       -18.4770   -1.4310  -66.9930 C.3    59  LEU59       0.0022
     63  CD1      -18.3450   -2.6450  -66.0940 C.3    59  LEU59       0.0001
     64  CD2      -18.3780   -1.8520  -68.4620 C.3    59  LEU59       0.0001
     65  N        -21.0230    2.2320  -65.9940 N.am   60  SER60      -0.1936
     66  CA       -22.0730    2.8710  -65.2100 C.3    60  SER60       0.2040
     67  C        -21.6600    4.2830  -64.8340 C.2    60  SER60       0.2485
     68  O        -20.4740    4.5370  -64.6080 O.2    60  SER60      -0.2729
     69  CB       -22.4010    2.0450  -63.9470 C.3    60  SER60       0.2129
     70  OG       -21.2430    1.8190  -63.1640 O.3    60  SER60      -0.2179
     71  N        -22.6320    5.2110  -64.7880 N.am   61  PRO61      -0.2715
     72  CA       -22.2880    6.5830  -64.4500 C.3    61  PRO61       0.1536
     73  C        -22.0350    6.7480  -62.9600 C.2    61  PRO61       0.2598
     74  O        -22.3600    5.8590  -62.1600 O.2    61  PRO61      -0.2715
     75  CB       -23.5420    7.3610  -64.8590 C.3    61  PRO61       0.0310
     76  CG       -24.6500    6.3860  -64.6310 C.3    61  PRO61       0.0237
     77  CD       -24.0750    5.0620  -65.0570 C.3    61  PRO61       0.0939
     78  N        -21.4590    7.8930  -62.6150 N.am   62  MET62      -0.1978
     79  CA       -21.2350    8.2960  -61.2400 C.3    62  MET62       0.1605
     80  C        -21.7860    9.7130  -61.1290 C.2    62  MET62       0.2287
     81  O        -21.7710   10.4610  -62.1080 O.2    62  MET62      -0.2864
     82  CB       -19.7440    8.2800  -60.9340 C.3    62  MET62       0.0413
     83  CG       -19.4080    8.1830  -59.4580 C.3    62  MET62       0.0598
     84  SD       -17.6350    8.1670  -59.1960 S.3    62  MET62      -0.1393
     85  CE       -17.1520    6.6190  -59.9610 C.3    62  MET62       0.0692
     86  N        -17.7630    0.8840  -61.9400 N.3   101  THR101     -0.1218
     87  CA       -17.7000    1.9370  -62.9450 C.3   101  THR101      0.1862
     88  C        -16.8430    1.5070  -64.1380 C.2   101  THR101      0.2287
     89  O        -17.2580    1.6460  -65.2890 O.2   101  THR101     -0.2866
     90  CB       -17.1170    3.2350  -62.3610 C.3   101  THR101      0.1770
     91  OG1      -17.8160    3.5770  -61.1520 O.3   101  THR101     -0.2211
     92  CG2      -17.2200    4.3830  -63.3680 C.3   101  THR101      0.0375
@<TRIPOS>BOND
     1    44    43   ar
     2    45    43   ar
     3    43    42    1
     4    42    39    1
     5    39    38    1
     6    39    40    1
     7    46    40   am
     8    46    47    1
     9    40    41    2
    10    49    48    2
    11    53    55   ar
    12    53    51   ar
    13    55    56   ar
    14    50    47    1
    15    50    51    1
    16    47    48    1
    17    48    57   am
    18    51    52   ar
    19    64    62    1
    20    22    24   ar
    21    22    21   ar
    22    24    25   ar
    23    56    54   ar
    24    27    26    1
    25    27    28    1
    26    57    58    1
    27    26    18   am
    28    58    59    1
    29    58    61    1
    30    28    29    2
    31    52    54   ar
    32    60    59    2
    33    62    61    1
    34    62    63    1
    35    25    23   ar
    36    21    20    1
    37    21    23   ar
    38    59    65   am
    39    20    17    1
    40    18    17    1
    41    18    19    2
    42    17    16    1
    43    65    66    1
    44     7     6    2
    45    12    11    2
    46    89    88    2
    47    66    67    1
    48    66    69    1
    49     5     6    1
    50     5     2    1
    51    16    11   am
    52     6     8   am
    53    77    71    1
    54    77    76    1
    55    75    76    1
    56    75    72    1
    57    67    71   am
    58    67    68    2
    59     4     3    2
    60    71    72    1
    61    11    10    1
    62    72    73    1
    63    88    87    1
    64     3     2    1
    65     3     9   am
    66     2     1    1
    67    32    31    1
    68    32    33    2
    69    69    70    1
    70    30    31    1
    71    34    36    1
    72    34    31    1
    73    34    35    1
    74     9    10    1
    75    10    13    1
    76    92    90    1
    77    35    37    1
    78    73    78   am
    79    73    74    2
    80    87    90    1
    81    87    86    1
    82    78    79    1
    83    14    13    1
    84    90    91    1
    85    13    15    1
    86    81    80    2
    87    79    80    1
    88    79    82    1
    89    82    83    1
    90    85    84    1
    91    83    84    1
