@<TRIPOS>MOLECULE
tmp/2v1rB00.pdb
 103 97 0 0 0
SMALL
GASTEIGER

@<TRIPOS>ATOM
      1  N         24.7050   28.9230   24.3520 N.3     2  PRO2       -0.2102
      2  CA        25.1520   27.6680   24.9710 C.3     2  PRO2        0.1504
      3  C         24.4190   27.3240   26.2680 C.2     2  PRO2        0.2576
      4  O         24.1360   26.1520   26.5090 O.2     2  PRO2       -0.2718
      5  CB        26.6360   27.9270   25.2620 C.3     2  PRO2        0.0282
      6  CG        27.0410   28.9610   24.2740 C.3     2  PRO2        0.0208
      7  CD        25.8310   29.8320   24.0680 C.3     2  PRO2        0.0893
      8  N         24.1110   28.3220   27.0890 N.am    3  SER3       -0.1953
      9  CA        23.4920   28.0520   28.3850 C.3     3  SER3        0.1924
     10  C         22.0430   27.5650   28.2820 C.2     3  SER3        0.2314
     11  O         21.4610   27.1270   29.2730 O.2     3  SER3       -0.2863
     12  CB        23.5770   29.2870   29.2950 C.3     3  SER3        0.2116
     13  OG        23.1410   30.4550   28.6200 O.3     3  SER3       -0.2180
     14  N         21.1780   25.0980   25.8950 N.3     5  LEU5       -0.1245
     15  CA        21.3170   23.8900   25.0720 C.3     5  LEU5        0.1561
     16  C         20.7490   22.6680   25.7860 C.2     5  LEU5        0.2260
     17  O         20.9560   22.4930   26.9630 O.2     5  LEU5       -0.2867
     18  CB        22.8010   23.6470   24.7660 C.3     5  LEU5        0.0270
     19  CG        23.5410   24.5010   23.7440 C.3     5  LEU5        0.0019
     20  CD1       24.9730   24.1560   23.6340 C.3     5  LEU5        0.0001
     21  CD2       22.8830   24.6980   22.3960 C.3     5  LEU5        0.0001
     22  N         21.1940   18.5380   25.9710 N.3     7  PHE7       -0.1241
     23  CA        22.2240   17.5530   25.7250 C.3     7  PHE7        0.1605
     24  C         21.6770   16.1160   25.6360 C.2     7  PHE7        0.2264
     25  O         20.6280   15.8280   26.1760 O.2     7  PHE7       -0.2867
     26  CB        23.3600   17.6220   26.7370 C.3     7  PHE7        0.0534
     27  CG        24.0140   18.9450   26.8520 C.ar    7  PHE7       -0.0203
     28  CD1       23.5900   19.8640   27.8030 C.ar    7  PHE7       -0.0042
     29  CD2       25.0440   19.2990   26.0410 C.ar    7  PHE7       -0.0042
     30  CE1       24.1850   21.0800   27.9310 C.ar    7  PHE7       -0.0003
     31  CE2       25.6230   20.5410   26.1740 C.ar    7  PHE7       -0.0003
     32  CZ        25.1850   21.4290   27.1160 C.ar    7  PHE7       -0.0000
     33  N         22.7120   11.6050   25.0430 N.3     9  ARG9       -0.1231
     34  CA        23.6530   10.5250   25.0280 C.3     9  ARG9        0.1694
     35  C         23.2780    9.4840   23.9840 C.2     9  ARG9        0.2592
     36  O         22.1400    9.2430   23.7610 O.2     9  ARG9       -0.2718
     37  CB        23.7540    9.9450   26.4210 C.3     9  ARG9        0.0321
     38  CG        24.6210    8.7700   26.5680 C.3     9  ARG9        0.0489
     39  CD        24.9070    8.5320   27.9880 C.3     9  ARG9        0.2205
     40  NE        23.7480    7.9730   28.6590 N.pl3   9  ARG9       -0.0865
     41  CZ        23.6310    7.7820   29.9580 C.cat   9  ARG9        0.5346
     42  NH1       22.5310    7.2610   30.4190 N.pl3   9  ARG9        0.1354
     43  NH2       24.6060    8.1060   30.7740 N.pl3   9  ARG9        0.1354
     44  N         24.2620    8.8730   23.3620 N.am   10  ALA10      -0.1966
     45  CA        24.0240    7.8840   22.3110 C.3    10  ALA10       0.1728
     46  C         23.6300    6.5300   22.9000 C.2    10  ALA10       0.2616
     47  O         24.2760    6.0360   23.8240 O.2    10  ALA10      -0.2715
     48  CB        25.2610    7.7370   21.4190 C.3    10  ALA10       0.0334
     49  N         22.5620    5.9440   22.3670 N.am   11  LEU11      -0.1977
     50  CA        22.1240    4.6110   22.7690 C.3    11  LEU11       0.1596
     51  C         22.7650    3.5170   21.9030 C.2    11  LEU11       0.2287
     52  O         22.8950    2.3750   22.3430 O.2    11  LEU11      -0.2864
     53  CB        20.5960    4.4930   22.6850 C.3    11  LEU11       0.0297
     54  CG        19.7640    5.5380   23.4240 C.3    11  LEU11       0.0022
     55  CD1       18.2820    5.3290   23.1370 C.3    11  LEU11       0.0001
     56  CD2       20.0390    5.4950   24.9260 C.3    11  LEU11       0.0001
     57  N         28.1890    4.2340   21.2110 N.3    27  LYS27      -0.1231
     58  CA        27.3160    4.0900   22.3480 C.3    27  LYS27       0.1693
     59  C         27.9040    4.6690   23.6150 C.2    27  LYS27       0.2592
     60  O         29.0200    4.4070   23.9330 O.2    27  LYS27      -0.2718
     61  CB        26.8200    2.6750   22.5530 C.3    27  LYS27       0.0285
     62  CG        25.7520    2.5470   23.6250 C.3    27  LYS27       0.0035
     63  CD        25.4530    1.1220   24.0230 C.3    27  LYS27       0.0206
     64  CE        24.5590    1.0730   25.2640 C.3    27  LYS27       0.1093
     65  NZ        25.2430    0.9060   26.5200 N.3    27  LYS27      -0.1314
     66  N         27.1570    5.5200   24.2830 N.am   28  GLY28      -0.1957
     67  CA        27.6330    6.1900   25.4670 C.3    28  GLY28       0.1869
     68  C         28.1100    7.6130   25.2830 C.2    28  GLY28       0.2309
     69  O         28.2050    8.3420   26.2390 O.2    28  GLY28      -0.2863
     70  N         28.3960   11.5060   24.5220 N.3    30  LEU30      -0.1245
     71  CA        27.5730   12.6620   24.8670 C.3    30  LEU30       0.1561
     72  C         27.6270   13.6700   23.7260 C.2    30  LEU30       0.2260
     73  O         28.6110   13.7290   22.9890 O.2    30  LEU30      -0.2867
     74  CB        28.0550   13.3120   26.1680 C.3    30  LEU30       0.0270
     75  CG        28.1510   12.4590   27.4310 C.3    30  LEU30       0.0019
     76  CD1       28.7900   13.2520   28.5640 C.3    30  LEU30       0.0001
     77  CD2       26.7810   11.9620   27.8490 C.3    30  LEU30       0.0001
     78  N         19.2630    9.7660   23.7290 N.3    65  GLU65      -0.1196
     79  CA        18.5570    9.8720   24.9820 C.3    65  GLU65       0.1783
     80  C         18.8000   11.2830   25.4730 C.2    65  GLU65       0.2306
     81  O         19.8900   11.6510   25.6720 O.2    65  GLU65      -0.2863
     82  CB        19.1160    8.8030   25.9480 C.2    65  GLU65       0.0071
     83  CG        18.4960    8.7550   27.2640 C.2    65  GLU65       0.0834
     84  CD        19.2800    8.0390   28.3320 C.2    65  GLU65       0.3877
     85  OE1       20.3230    7.4510   28.1370 O.co2  65  GLU65      -0.2406
     86  OE2       18.8180    8.1150   29.4340 O.co2  65  GLU65      -0.2406
     87  N         19.4560   13.8930   27.8900 N.3    67  ILE67      -0.1231
     88  CA        19.8890   13.9180   29.2840 C.3    67  ILE67       0.1692
     89  C         19.7260   15.2760   29.9640 C.2    67  ILE67       0.2591
     90  O         19.9910   15.4100   31.1560 O.2    67  ILE67      -0.2718
     91  CB        21.3630   13.4710   29.4330 C.3    67  ILE67       0.0266
     92  CG1       22.3080   14.4810   28.7830 C.3    67  ILE67       0.0019
     93  CG2       21.5690   12.0870   28.8500 C.3    67  ILE67       0.0020
     94  CD1       23.7640   14.0770   28.8540 C.3    67  ILE67       0.0001
     95  N         19.2940   16.2780   29.2040 N.am   68  LYS68      -0.1980
     96  CA        19.2040   17.6510   29.6980 C.3    68  LYS68       0.1596
     97  C         18.1310   18.4370   28.9510 C.2    68  LYS68       0.2287
     98  O         17.0000   18.5630   29.4190 O.2    68  LYS68      -0.2864
     99  CB        20.5550   18.3540   29.5430 C.3    68  LYS68       0.0298
    100  CG        20.4690   19.8700   29.3920 C.3    68  LYS68       0.0038
    101  CD        20.7890   20.6150   30.6820 C.3    68  LYS68       0.0206
    102  CE        19.6100   20.6480   31.6430 C.3    68  LYS68       0.1093
    103  NZ        19.8220   21.6890   32.6960 N.3    68  LYS68      -0.1314
@<TRIPOS>BOND
     1    57    58    1
     2    48    45    1
     3    51    52    2
     4    51    50    1
     5    45    46    1
     6    45    44    1
     7    58    61    1
     8    58    59    1
     9    49    50    1
    10    49    46   am
    11    21    19    1
    12    61    62    1
    13    53    50    1
    14    53    54    1
    15    46    47    2
    16    73    72    2
    17    55    54    1
    18    44    35   am
    19    54    56    1
    20    59    60    2
    21    59    66   am
    22    62    63    1
    23    20    19    1
    24    72    71    1
    25    78    79    1
    26    19    18    1
    27    36    35    2
    28    35    34    1
    29    63    64    1
    30     7     6    1
    31     7     1    1
    32     6     5    1
    33    66    67    1
    34     1     2    1
    35    70    71    1
    36    18    15    1
    37    71    74    1
    38     2     5    1
    39     2     3    1
    40    79    80    1
    41    79    82    1
    42    34    33    1
    43    34    37    1
    44    15    16    1
    45    15    14    1
    46    64    65    1
    47    68    67    1
    48    68    69    2
    49    80    81    2
    50    24    23    1
    51    24    25    2
    52    23    22    1
    53    23    26    1
    54    16    17    2
    55    82    83    2
    56    29    31   ar
    57    29    27   ar
    58    74    75    1
    59    31    32   ar
    60     3     4    2
    61     3     8   am
    62    37    38    1
    63    38    39    1
    64    26    27    1
    65    27    28   ar
    66     8     9    1
    67    32    30   ar
    68    83    84    1
    69    75    77    1
    70    75    76    1
    71    28    30   ar
    72    87    88    1
    73    39    40    1
    74    85    84   ar
    75    10     9    1
    76    10    11    2
    77    84    86   ar
    78     9    12    1
    79    13    12    1
    80    40    41    2
    81    92    94    1
    82    92    91    1
    83    93    91    1
    84    97    98    2
    85    97    96    1
    86    95    96    1
    87    95    89   am
    88    88    91    1
    89    88    89    1
    90   100    99    1
    91   100   101    1
    92    99    96    1
    93    41    42    1
    94    41    43    1
    95    89    90    2
    96   101   102    1
    97   102   103    1
