@<TRIPOS>MOLECULE
tmp/2v1sB00.pdb
 122 116 0 0 0
SMALL
GASTEIGER

@<TRIPOS>ATOM
      1  N         58.5620   12.4320    5.7640 N.3     2  ASP2       -0.1239
      2  CA        59.5110   11.7460    4.8840 C.3     2  ASP2        0.1674
      3  C         59.5130   10.2300    5.1320 C.2     2  ASP2        0.2266
      4  O         59.9280    9.7550    6.1840 O.2     2  ASP2       -0.2867
      5  CB        60.9420   12.3140    5.0090 C.3     2  ASP2        0.1410
      6  CG        61.8120   11.9880    3.7930 C.2     2  ASP2        0.3668
      7  OD1       61.4500   11.0750    3.0140 O.co2   2  ASP2       -0.2456
      8  OD2       62.8600   12.6450    3.5980 O.co2   2  ASP2       -0.2456
      9  N         61.4250    8.1050    3.9710 N.3     4  GLU4       -0.1245
     10  CA        62.7900    7.6410    4.0580 C.3     4  GLU4        0.1567
     11  C         63.5070    8.4340    5.1520 C.2     4  GLU4        0.2260
     12  O         64.6640    8.7990    5.0180 O.2     4  GLU4       -0.2867
     13  CB        63.4240    7.7570    2.6620 C.3     4  GLU4        0.0388
     14  CG        62.6410    6.8670    1.6640 C.3     4  GLU4        0.1160
     15  CD        62.8910    7.1500    0.1880 C.2     4  GLU4        0.3649
     16  OE1       62.3430    6.3880   -0.6470 O.co2   4  GLU4       -0.2457
     17  OE2       63.6110    8.1080   -0.1500 O.co2   4  GLU4       -0.2457
     18  N         64.3990    7.3150    8.0360 N.3     6  VAL6       -0.1231
     19  CA        65.4290    6.4950    8.6670 C.3     6  VAL6        0.1692
     20  C         66.7380    6.4670    7.8570 C.2     6  VAL6        0.2592
     21  O         67.8390    6.5100    8.4300 O.2     6  VAL6       -0.2718
     22  CB        64.9340    5.0590    8.9080 C.3     6  VAL6        0.0266
     23  CG1       66.0620    4.2010    9.5170 C.3     6  VAL6        0.0020
     24  CG2       63.7250    5.0720    9.8180 C.3     6  VAL6        0.0020
     25  N         66.6130    6.4100    6.5370 N.am    7  GLN7       -0.1966
     26  CA        67.7840    6.4850    5.6630 C.3     7  GLN7        0.1733
     27  C         68.4110    7.8770    5.7450 C.2     7  GLN7        0.2616
     28  O         69.6250    8.0290    5.7060 O.2     7  GLN7       -0.2715
     29  CB        67.3830    6.1830    4.2280 C.3     7  GLN7        0.0408
     30  CG        66.7780    4.7810    4.0140 C.3     7  GLN7        0.0908
     31  CD        65.2590    4.7730    4.1070 C.2     7  GLN7        0.2608
     32  OE1       64.6710    5.4250    4.9730 O.2     7  GLN7       -0.2717
     33  NE2       64.6150    4.0360    3.1980 N.am    7  GLN7       -0.0878
     34  N         67.5510    8.8800    5.8610 N.am    8  LYS8       -0.1977
     35  CA        67.9620   10.2560    6.0190 C.3     8  LYS8        0.1596
     36  C         68.7130   10.4740    7.3290 C.2     8  LYS8        0.2287
     37  O         69.8140   11.0590    7.3400 O.2     8  LYS8       -0.2864
     38  CB        66.7440   11.1770    5.9180 C.3     8  LYS8        0.0298
     39  CG        67.0580   12.6330    6.2070 C.3     8  LYS8        0.0038
     40  CD        65.9870   13.5470    5.6820 C.3     8  LYS8        0.0206
     41  CE        66.2670   14.9760    6.0920 C.3     8  LYS8        0.1093
     42  NZ        66.0640   15.1460    7.5680 N.3     8  LYS8       -0.1314
     43  N         70.1260    8.0780    9.1450 N.3    10  PHE10      -0.1227
     44  CA        71.3130    7.2450    9.0270 C.3    10  PHE10       0.1736
     45  C         72.4930    7.9820    8.3460 C.2    10  PHE10       0.2595
     46  O         73.5870    8.0080    8.8780 O.2    10  PHE10      -0.2718
     47  CB        70.9510    5.9480    8.2900 C.3    10  PHE10       0.0547
     48  CG        72.1260    5.0910    7.9310 C.ar   10  PHE10      -0.0202
     49  CD1       72.5960    4.1310    8.8160 C.ar   10  PHE10      -0.0042
     50  CD2       72.7350    5.2150    6.6830 C.ar   10  PHE10      -0.0042
     51  CE1       73.6330    3.3520    8.4960 C.ar   10  PHE10      -0.0003
     52  CE2       73.8010    4.4300    6.3470 C.ar   10  PHE10      -0.0003
     53  CZ        74.2650    3.4950    7.2500 C.ar   10  PHE10      -0.0000
     54  N         72.2320    8.6380    7.2260 N.am   11  LEU11      -0.1966
     55  CA        73.2840    9.3180    6.4910 C.3    11  LEU11       0.1728
     56  C         73.7490   10.5510    7.2650 C.2    11  LEU11       0.2616
     57  O         74.9320   10.7550    7.4110 O.2    11  LEU11      -0.2715
     58  CB        72.8060    9.7170    5.0950 C.3    11  LEU11       0.0311
     59  CG        73.7750    9.6180    3.9120 C.3    11  LEU11       0.0022
     60  CD1       73.5020   10.7860    2.9520 C.3    11  LEU11       0.0001
     61  CD2       75.2500    9.5610    4.2970 C.3    11  LEU11       0.0001
     62  N         72.8080   11.3430    7.7830 N.am   12  GLU12      -0.1977
     63  CA        73.1390   12.5200    8.5750 C.3    12  GLU12       0.1602
     64  C         74.0540   12.1950    9.7390 C.2    12  GLU12       0.2287
     65  O         75.0590   12.8860    9.9530 O.2    12  GLU12      -0.2864
     66  CB        71.8690   13.1960    9.1050 C.3    12  GLU12       0.0415
     67  CG        71.0630   13.8560    8.0170 C.3    12  GLU12       0.1163
     68  CD        69.8110   14.5360    8.5240 C.2    12  GLU12       0.3649
     69  OE1       69.1670   14.0370    9.4850 O.co2  12  GLU12      -0.2457
     70  OE2       69.4640   15.5780    7.9390 O.co2  12  GLU12      -0.2457
     71  N         77.6210   11.3530    8.5350 N.3    15  GLN15      -0.1245
     72  CA        78.3380   12.5620    8.1570 C.3    15  GLN15       0.1566
     73  C         78.7480   13.3800    9.3770 C.2    15  GLN15       0.2260
     74  O         79.8430   13.9330    9.4250 O.2    15  GLN15      -0.2867
     75  CB        77.5000   13.3910    7.1740 C.3    15  GLN15       0.0367
     76  CG        77.2720   12.6240    5.8650 C.3    15  GLN15       0.0905
     77  CD        76.2720   13.2430    4.9180 C.2    15  GLN15       0.2608
     78  OE1       75.4450   14.0810    5.2980 O.2    15  GLN15      -0.2717
     79  NE2       76.3290   12.8140    3.6640 N.am   15  GLN15      -0.0878
     80  N         70.2910    1.9780   13.7920 N.3    39  VAL39      -0.1231
     81  CA        69.1200    1.8960   12.8690 C.3    39  VAL39       0.1692
     82  C         69.4010    1.0450   11.6340 C.2    39  VAL39       0.2592
     83  O         68.5700    0.9560   10.7110 O.2    39  VAL39      -0.2718
     84  CB        68.5680    3.3050   12.4180 C.3    39  VAL39       0.0266
     85  CG1       68.2350    4.1920   13.6340 C.3    39  VAL39       0.0020
     86  CG2       69.5280    4.0220   11.4840 C.3    39  VAL39       0.0020
     87  N         70.5650    0.4080   11.6290 N.am   40  CYS40      -0.1956
     88  CA        71.0000   -0.4210   10.5180 C.3    40  CYS40       0.1843
     89  C         70.7950   -1.8800   10.8840 C.2    40  CYS40       0.2626
     90  O         71.4370   -2.3760   11.8010 O.2    40  CYS40      -0.2714
     91  CB        72.4860   -0.1450   10.2190 C.3    40  CYS40       0.0997
     92  SG        73.0710   -0.9060    8.7330 S.3    40  CYS40      -0.0797
     93  N         69.9160   -2.5600   10.1510 N.am   41  GLY41      -0.1940
     94  CA        69.5560   -3.9420   10.4180 C.3    41  GLY41       0.2014
     95  C         70.7170   -4.9060   10.3460 C.2    41  GLY41       0.2638
     96  O         70.9470   -5.6820   11.2770 O.2    41  GLY41      -0.2714
     97  N         71.4570   -4.8700    9.2400 N.am   42  GLN42      -0.1977
     98  CA        72.7030   -5.6170    9.1650 C.3    42  GLN42       0.1601
     99  C         73.8180   -4.6390    8.8160 C.2    42  GLN42       0.2287
    100  O         73.9760   -4.2450    7.6590 O.2    42  GLN42      -0.2864
    101  CB        72.6270   -6.7850    8.1770 C.3    42  GLN42       0.0394
    102  CG        73.2880   -8.1160    8.7050 C.3    42  GLN42       0.0908
    103  CD        74.7100   -7.9310    9.2870 C.2    42  GLN42       0.2608
    104  OE1       75.6440   -7.5760    8.5740 O.2    42  GLN42      -0.2717
    105  NE2       74.8650   -8.1950   10.5810 N.am   42  GLN42      -0.0878
    106  N         78.3820   -4.4260    6.2310 N.3    45  GLN45      -0.1231
    107  CA        78.9500   -3.6380    5.1390 C.3    45  GLN45       0.1698
    108  C         79.4320   -2.2830    5.6730 C.2    45  GLN45       0.2592
    109  O         80.5420   -1.8460    5.3680 O.2    45  GLN45      -0.2718
    110  CB        77.9190   -3.4520    4.0420 C.3    45  GLN45       0.0381
    111  CG        78.4390   -2.9100    2.7450 C.3    45  GLN45       0.0905
    112  CD        77.4320   -3.1090    1.6280 C.2    45  GLN45       0.2608
    113  OE1       76.7750   -2.1660    1.1960 O.2    45  GLN45      -0.2717
    114  NE2       77.2810   -4.3450    1.1800 N.am   45  GLN45      -0.0878
    115  N         78.6080   -1.6460    6.5020 N.am   46  LEU46      -0.1980
    116  CA        78.9840   -0.3840    7.1370 C.3    46  LEU46       0.1596
    117  C         80.2130   -0.5240    8.0440 C.2    46  LEU46       0.2287
    118  O         81.0870    0.3160    8.0110 O.2    46  LEU46      -0.2864
    119  CB        77.8160    0.2030    7.9490 C.3    46  LEU46       0.0297
    120  CG        78.1850    1.4430    8.7910 C.3    46  LEU46       0.0022
    121  CD1       78.7880    2.5650    7.9330 C.3    46  LEU46       0.0001
    122  CD2       76.9770    1.9250    9.6020 C.3    46  LEU46       0.0001
@<TRIPOS>BOND
     1    16    15   ar
     2    17    15   ar
     3    15    14    1
     4   114   112   am
     5   113   112    2
     6   112   111    1
     7    14    13    1
     8    13    10    1
     9   111   110    1
    10    60    59    1
    11     7     6   ar
    12    33    31   am
    13     8     6   ar
    14    79    77   am
    15     6     5    1
    16    59    61    1
    17    59    58    1
    18     9    10    1
    19    30    31    1
    20    30    29    1
    21   110   107    1
    22    10    11    1
    23    31    32    2
    24    29    26    1
    25     2     5    1
    26     2     3    1
    27     2     1    1
    28    77    78    2
    29    77    76    1
    30    12    11    2
    31    58    55    1
    32     3     4    2
    33   107   108    1
    34   107   106    1
    35   109   108    2
    36    26    27    1
    37    26    25    1
    38   108   115   am
    39    40    41    1
    40    40    39    1
    41    28    27    2
    42    27    34   am
    43    34    35    1
    44    76    75    1
    45    38    35    1
    46    38    39    1
    47    35    36    1
    48    41    42    1
    49    52    50   ar
    50    52    53   ar
    51    55    54    1
    52    55    56    1
    53   115   116    1
    54    25    20   am
    55    50    48   ar
    56   116   119    1
    57   116   117    1
    58    75    72    1
    59    54    45   am
    60    53    51   ar
    61    56    57    2
    62    56    62   am
    63    36    37    2
    64   100    99    2
    65    62    63    1
    66    20    21    2
    67    20    19    1
    68    48    47    1
    69    48    49   ar
    70   121   120    1
    71    70    68   ar
    72   119   120    1
    73   118   117    2
    74    67    68    1
    75    67    66    1
    76    18    19    1
    77    72    71    1
    78    72    73    1
    79   101   102    1
    80   101    98    1
    81    47    44    1
    82    45    46    2
    83    45    44    1
    84    51    49   ar
    85    68    69   ar
    86   104   103    2
    87    63    66    1
    88    63    64    1
    89    19    22    1
    90   102   103    1
    91    92    91    1
    92   120   122    1
    93    99    98    1
    94    22    23    1
    95    22    24    1
    96    44    43    1
    97    98    97    1
    98    97    95   am
    99   103   105   am
   100    73    74    2
   101    64    65    2
   102    93    94    1
   103    93    89   am
   104    91    88    1
   105    95    94    1
   106    95    96    2
   107    88    89    1
   108    88    87    1
   109    83    82    2
   110    89    90    2
   111    86    84    1
   112    87    82   am
   113    82    81    1
   114    84    81    1
   115    84    85    1
   116    81    80    1
