@<TRIPOS>MOLECULE
tmp/2v1sA00.pdb
 117 110 0 0 0
SMALL
GASTEIGER

@<TRIPOS>ATOM
      1  N         82.6500   10.3380   50.5330 N.3    10  PHE10      -0.1227
      2  CA        83.2080    9.5110   49.4720 C.3    10  PHE10       0.1736
      3  C         84.7440    9.6650   49.4140 C.2    10  PHE10       0.2595
      4  O         85.4690    8.6960   49.5730 O.2    10  PHE10      -0.2718
      5  CB        82.5690    9.8790   48.1330 C.3    10  PHE10       0.0547
      6  CG        83.1480    9.1460   46.9790 C.ar   10  PHE10      -0.0202
      7  CD1       82.7350    7.8520   46.6880 C.ar   10  PHE10      -0.0042
      8  CD2       84.1020    9.7470   46.1660 C.ar   10  PHE10      -0.0042
      9  CE1       83.2810    7.1780   45.6260 C.ar   10  PHE10      -0.0003
     10  CE2       84.6480    9.0760   45.1100 C.ar   10  PHE10      -0.0003
     11  CZ        84.2510    7.7880   44.8310 C.ar   10  PHE10      -0.0000
     12  N         85.2090   10.8970   49.2360 N.am   11  LEU11      -0.1980
     13  CA        86.6320   11.1780   49.0850 C.3    11  LEU11       0.1596
     14  C         87.3990   10.8540   50.3650 C.2    11  LEU11       0.2287
     15  O         88.4960   10.3030   50.3020 O.2    11  LEU11      -0.2864
     16  CB        86.8580   12.6460   48.6730 C.3    11  LEU11       0.0297
     17  CG        88.2940   13.0430   48.2910 C.3    11  LEU11       0.0022
     18  CD1       88.8580   12.1570   47.1740 C.3    11  LEU11       0.0001
     19  CD2       88.3720   14.5280   47.9260 C.3    11  LEU11       0.0001
     20  N         87.7960    6.9830   50.5400 N.3    14  ILE14      -0.1231
     21  CA        88.8090    6.5710   49.5540 C.3    14  ILE14       0.1692
     22  C         90.2000    6.8680   50.1120 C.2    14  ILE14       0.2591
     23  O         91.0750    6.0250   50.0890 O.2    14  ILE14      -0.2718
     24  CB        88.6140    7.3100   48.1780 C.3    14  ILE14       0.0266
     25  CG1       87.3770    6.7840   47.4170 C.3    14  ILE14       0.0019
     26  CG2       89.8660    7.2150   47.2880 C.3    14  ILE14       0.0020
     27  CD1       87.3690    5.2800   47.1290 C.3    14  ILE14       0.0001
     28  N         90.4030    8.0750   50.6010 N.am   15  GLN15      -0.1979
     29  CA        91.7200    8.4800   51.0770 C.3    15  GLN15       0.1601
     30  C         92.1820    7.6950   52.3000 C.2    15  GLN15       0.2287
     31  O         93.3600    7.3310   52.4000 O.2    15  GLN15      -0.2864
     32  CB        91.7370    9.9580   51.3770 C.3    15  GLN15       0.0394
     33  CG        91.6970   10.7860   50.1230 C.3    15  GLN15       0.0908
     34  CD        91.4600   12.2620   50.3910 C.2    15  GLN15       0.2608
     35  OE1       90.8450   12.6380   51.3910 O.2    15  GLN15      -0.2717
     36  NE2       91.9430   13.1020   49.4970 N.am   15  GLN15      -0.0878
     37  N         92.9850    4.0500   51.1570 N.3    18  GLU18      -0.1245
     38  CA        94.3000    4.0830   50.5220 C.3    18  GLU18       0.1567
     39  C         95.4510    4.1000   51.5570 C.2    18  GLU18       0.2260
     40  O         96.4110    3.3390   51.4190 O.2    18  GLU18      -0.2867
     41  CB        94.3460    5.3080   49.6110 C.3    18  GLU18       0.0388
     42  CG        95.5990    5.4870   48.7990 C.3    18  GLU18       0.1160
     43  CD        95.4800    6.6610   47.8360 C.2    18  GLU18       0.3649
     44  OE1       95.7160    6.4650   46.6410 O.co2  18  GLU18      -0.2457
     45  OE2       95.1350    7.7770   48.2760 O.co2  18  GLU18      -0.2457
     46  N         95.6190    0.6310   53.4310 N.3    21  LEU21      -0.1245
     47  CA        96.2610   -0.3640   52.5510 C.3    21  LEU21       0.1561
     48  C         97.7840   -0.1810   52.5390 C.2    21  LEU21       0.2260
     49  O         98.5340   -1.1600   52.5810 O.2    21  LEU21      -0.2867
     50  CB        95.7230   -0.2830   51.1170 C.3    21  LEU21       0.0270
     51  CG        94.2970   -0.7680   50.8630 C.3    21  LEU21       0.0019
     52  CD1       93.9200   -0.5630   49.4080 C.3    21  LEU21       0.0001
     53  CD2       94.1360   -2.2230   51.2240 C.3    21  LEU21       0.0001
     54  N         87.2740    1.6280   51.6230 N.3    33  LEU33      -0.1245
     55  CA        87.0040    1.6590   50.1770 C.3    33  LEU33       0.1561
     56  C         85.5850    1.1830   49.8330 C.2    33  LEU33       0.2260
     57  O         84.9270    1.7570   48.9860 O.2    33  LEU33      -0.2867
     58  CB        88.0460    0.8380   49.3720 C.3    33  LEU33       0.0270
     59  CG        89.4840    1.3770   49.3010 C.3    33  LEU33       0.0019
     60  CD1       90.4000    0.4490   48.4610 C.3    33  LEU33       0.0001
     61  CD2       89.5450    2.8070   48.7370 C.3    33  LEU33       0.0001
     62  N         82.9540    2.7330   36.9380 N.3    45  GLN45      -0.1231
     63  CA        84.1890    3.4680   36.6260 C.3    45  GLN45       0.1698
     64  C         85.1850    3.4210   37.7970 C.2    45  GLN45       0.2592
     65  O         86.4040    3.2900   37.5910 O.2    45  GLN45      -0.2718
     66  CB        83.8580    4.9150   36.2180 C.3    45  GLN45       0.0381
     67  CG        85.0660    5.8750   36.0600 C.3    45  GLN45       0.0905
     68  CD        84.7520    7.0690   35.1340 C.2    45  GLN45       0.2608
     69  OE1       84.7320    8.2270   35.5690 O.2    45  GLN45      -0.2717
     70  NE2       84.4910    6.7780   33.8580 N.am   45  GLN45      -0.0878
     71  N         84.6520    3.5110   39.0150 N.am   46  LEU46      -0.1980
     72  CA        85.4300    3.4490   40.2440 C.3    46  LEU46       0.1596
     73  C         86.0700    2.0760   40.4010 C.2    46  LEU46       0.2287
     74  O         87.2180    1.9890   40.7620 O.2    46  LEU46      -0.2864
     75  CB        84.5390    3.7220   41.4810 C.3    46  LEU46       0.0297
     76  CG        85.1330    4.3490   42.7640 C.3    46  LEU46       0.0022
     77  CD1       84.2660    3.9940   44.0210 C.3    46  LEU46       0.0001
     78  CD2       86.5950    4.0360   43.0270 C.3    46  LEU46       0.0001
     79  N         89.0340    1.6120   38.0540 N.3    49  VAL49      -0.1231
     80  CA        90.1810    2.3310   38.6110 C.3    49  VAL49       0.1692
     81  C         90.8440    1.5310   39.7350 C.2    49  VAL49       0.2591
     82  O         92.0530    1.3690   39.7340 O.2    49  VAL49      -0.2718
     83  CB        89.7930    3.7450   39.1300 C.3    49  VAL49       0.0266
     84  CG1       90.9420    4.3730   39.9460 C.3    49  VAL49       0.0020
     85  CG2       89.4000    4.6500   37.9650 C.3    49  VAL49       0.0020
     86  N         90.0460    1.0420   40.6800 N.am   50  LEU50      -0.1980
     87  CA        90.5400    0.2190   41.7930 C.3    50  LEU50       0.1596
     88  C         91.2440   -1.0850   41.3220 C.2    50  LEU50       0.2287
     89  O         92.2730   -1.4980   41.8810 O.2    50  LEU50      -0.2864
     90  CB        89.3860   -0.1040   42.7660 C.3    50  LEU50       0.0297
     91  CG        89.1860    0.6900   44.0760 C.3    50  LEU50       0.0022
     92  CD1       89.8950    2.0260   44.1740 C.3    50  LEU50       0.0001
     93  CD2       87.6840    0.8650   44.4130 C.3    50  LEU50       0.0001
     94  N         92.7840   -1.4360   38.4640 N.3    52  GLN52      -0.1231
     95  CA        94.0820   -1.0690   37.8670 C.3    52  GLN52       0.1698
     96  C         95.1020   -0.5980   38.9070 C.2    52  GLN52       0.2593
     97  O         96.3020   -0.5810   38.6330 O.2    52  GLN52      -0.2718
     98  CB        93.9060   -0.0240   36.7660 C.3    52  GLN52       0.0381
     99  CG        93.2150   -0.5510   35.5100 C.3    52  GLN52       0.0905
    100  CD        94.1100   -1.4340   34.7060 C.2    52  GLN52       0.2608
    101  OE1       94.9540   -0.9460   33.9600 O.2    52  GLN52      -0.2717
    102  NE2       93.9430   -2.7480   34.8470 N.am   52  GLN52      -0.0878
    103  N         94.6290   -0.2750   40.1090 N.am   53  THR53      -0.1939
    104  CA        95.4440    0.3780   41.1520 C.3    53  THR53       0.2028
    105  C         95.9350   -0.6080   42.2250 C.2    53  THR53       0.2642
    106  O         97.0610   -0.4970   42.7220 O.2    53  THR53      -0.2714
    107  CB        94.6240    1.5280   41.8410 C.3    53  THR53       0.1808
    108  OG1       94.3070    2.5500   40.8800 O.3    53  THR53      -0.2208
    109  CG2       95.4180    2.1620   42.9690 C.3    53  THR53       0.0379
    110  N         95.0850   -1.5760   42.5620 N.am   54  LEU54      -0.1977
    111  CA        95.3720   -2.5140   43.6440 C.3    54  LEU54       0.1596
    112  C         96.0070   -3.8040   43.1420 C.2    54  LEU54       0.2287
    113  O         95.6950   -4.2460   42.0300 O.2    54  LEU54      -0.2864
    114  CB        94.0910   -2.8670   44.3760 C.3    54  LEU54       0.0297
    115  CG        93.3030   -1.7200   45.0120 C.3    54  LEU54       0.0022
    116  CD1       92.0020   -2.2640   45.6640 C.3    54  LEU54       0.0001
    117  CD2       94.1520   -0.9390   46.0120 C.3    54  LEU54       0.0001
@<TRIPOS>BOND
     1    70    68   am
     2   101   100    2
     3   100   102   am
     4   100    99    1
     5    68    69    2
     6    68    67    1
     7    99    98    1
     8    67    66    1
     9    66    63    1
    10    63    62    1
    11    63    64    1
    12    98    95    1
    13    65    64    2
    14    64    71   am
    15    95    94    1
    16    95    96    1
    17    85    83    1
    18    79    80    1
    19    80    83    1
    20    80    81    1
    21    97    96    2
    22    96   103   am
    23    71    72    1
    24    83    84    1
    25    82    81    2
    26    81    86   am
    27   103   104    1
    28    72    73    1
    29    72    75    1
    30    73    74    2
    31    86    87    1
    32   108   107    1
    33   104   107    1
    34   104   105    1
    35    88    87    1
    36    88    89    2
    37    75    76    1
    38    87    90    1
    39   107   109    1
    40   113   112    2
    41   105   110   am
    42   105   106    2
    43   110   111    1
    44    76    78    1
    45    76    77    1
    46    90    91    1
    47   112   111    1
    48   111   114    1
    49    91    92    1
    50    91    93    1
    51   114   115    1
    52    11    10   ar
    53    11     9   ar
    54   115   116    1
    55   115   117    1
    56    10     8   ar
    57     9     7   ar
    58     8     6   ar
    59    44    43   ar
    60     7     6   ar
    61     6     5    1
    62    27    25    1
    63    18    17    1
    64    26    24    1
    65    25    24    1
    66    43    45   ar
    67    43    42    1
    68    19    17    1
    69     5     2    1
    70    24    21    1
    71    17    16    1
    72    60    59    1
    73    16    13    1
    74    61    59    1
    75    42    41    1
    76    57    56    2
    77    13    12    1
    78    13    14    1
    79    12     3   am
    80    59    58    1
    81    58    55    1
    82    52    51    1
    83     3     2    1
    84     3     4    2
    85     2     1    1
    86    36    34   am
    87    21    22    1
    88    21    20    1
    89    41    38    1
    90    56    55    1
    91    23    22    2
    92    22    28   am
    93    33    34    1
    94    33    32    1
    95    55    54    1
    96    15    14    2
    97    34    35    2
    98    38    37    1
    99    38    39    1
   100    28    29    1
   101    51    50    1
   102    51    53    1
   103    29    32    1
   104    29    30    1
   105    50    47    1
   106    40    39    2
   107    30    31    2
   108    48    47    1
   109    48    49    2
   110    47    46    1
