@<TRIPOS>MOLECULE
tmp/2v1sF00.pdb
 125 122 0 0 0
SMALL
GASTEIGER

@<TRIPOS>ATOM
      1  N        106.0100  -23.0990   -9.9300 N.3     1  ALA1       -0.1231
      2  CA       104.5090  -23.0410   -9.7930 C.3     1  ALA1        0.1694
      3  C        104.0740  -23.8200   -8.5580 C.2     1  ALA1        0.2591
      4  O        103.9150  -23.2330   -7.4890 O.2     1  ALA1       -0.2718
      5  CB       103.8370  -23.5730  -11.0370 C.3     1  ALA1        0.0304
      6  N        103.9010  -25.1370   -8.6820 N.am    2  GLU2       -0.1979
      7  CA       103.8800  -25.9870   -7.4910 C.3     2  GLU2        0.1602
      8  C        105.2590  -25.9730   -6.7970 C.2     2  GLU2        0.2287
      9  O        105.3370  -26.1140   -5.5820 O.2     2  GLU2       -0.2864
     10  CB       103.4460  -27.4260   -7.8150 C.3     2  GLU2        0.0415
     11  CG       101.9530  -27.5880   -8.1600 C.3     2  GLU2        0.1163
     12  CD       101.0380  -27.8270   -6.9410 C.2     2  GLU2        0.3649
     13  OE1      101.1060  -27.0540   -5.9490 O.co2   2  GLU2       -0.2457
     14  OE2      100.2210  -28.7820   -6.9940 O.co2   2  GLU2       -0.2457
     15  N        107.4250  -23.3050   -6.6110 N.3     4  VAL4       -0.1231
     16  CA       107.4200  -22.0500   -5.8680 C.3     4  VAL4        0.1692
     17  C        106.4720  -22.1370   -4.6620 C.2     4  VAL4        0.2592
     18  O        106.8160  -21.6890   -3.5690 O.2     4  VAL4       -0.2718
     19  CB       107.0170  -20.8670   -6.7640 C.3     4  VAL4        0.0266
     20  CG1      106.8500  -19.5870   -5.9440 C.3     4  VAL4        0.0020
     21  CG2      108.0580  -20.6630   -7.8530 C.3     4  VAL4        0.0020
     22  N        105.2870  -22.7130   -4.8740 N.am    5  GLN5       -0.1966
     23  CA       104.3120  -22.8960   -3.8030 C.3     5  GLN5        0.1733
     24  C        104.9290  -23.7430   -2.6900 C.2     5  GLN5        0.2616
     25  O        104.8290  -23.3920   -1.5230 O.2     5  GLN5       -0.2715
     26  CB       103.0240  -23.5420   -4.3390 C.3     5  GLN5        0.0408
     27  CG       102.0940  -22.5790   -5.1040 C.3     5  GLN5        0.0908
     28  CD       101.2300  -23.2790   -6.1840 C.2     5  GLN5        0.2608
     29  OE1      101.1380  -22.8000   -7.3220 O.2     5  GLN5       -0.2717
     30  NE2      100.6100  -24.4080   -5.8280 N.am    5  GLN5       -0.0878
     31  N        105.5890  -24.8400   -3.0710 N.am    6  LYS6       -0.1977
     32  CA       106.2590  -25.7400   -2.1230 C.3     6  LYS6        0.1596
     33  C        107.3890  -25.0440   -1.3320 C.2     6  LYS6        0.2287
     34  O        107.5050  -25.2130   -0.1190 O.2     6  LYS6       -0.2864
     35  CB       106.8110  -26.9480   -2.8820 C.3     6  LYS6        0.0298
     36  CG       107.4820  -28.0260   -2.0110 C.3     6  LYS6        0.0038
     37  CD       108.1650  -29.0650   -2.8990 C.3     6  LYS6        0.0206
     38  CE       108.8470  -30.1540   -2.0910 C.3     6  LYS6        0.1093
     39  NZ       109.9520  -29.5970   -1.2770 N.3     6  LYS6       -0.1314
     40  N        107.7350  -21.7170   -0.8960 N.3     8  PHE8       -0.1227
     41  CA       107.1720  -20.6370   -0.0890 C.3     8  PHE8        0.1736
     42  C        106.7090  -21.1480    1.2800 C.2     8  PHE8        0.2595
     43  O        106.9990  -20.5420    2.2940 O.2     8  PHE8       -0.2718
     44  CB       106.0140  -19.9610   -0.8180 C.3     8  PHE8        0.0547
     45  CG       105.2980  -18.9370    0.0130 C.ar    8  PHE8       -0.0202
     46  CD1      105.6680  -17.6010   -0.0340 C.ar    8  PHE8       -0.0042
     47  CD2      104.2590  -19.3130    0.8670 C.ar    8  PHE8       -0.0042
     48  CE1      105.0190  -16.6660    0.7520 C.ar    8  PHE8       -0.0003
     49  CE2      103.6090  -18.3750    1.6490 C.ar    8  PHE8       -0.0003
     50  CZ       103.9860  -17.0640    1.5990 C.ar    8  PHE8       -0.0000
     51  N        106.0080  -22.2760    1.2840 N.am    9  LEU9       -0.1980
     52  CA       105.4920  -22.8770    2.5090 C.3     9  LEU9        0.1596
     53  C        106.6140  -23.3280    3.4510 C.2     9  LEU9        0.2287
     54  O        106.6080  -22.9980    4.6470 O.2     9  LEU9       -0.2864
     55  CB       104.5700  -24.0480    2.1450 C.3     9  LEU9        0.0297
     56  CG       103.5790  -24.5890    3.1800 C.3     9  LEU9        0.0022
     57  CD1      104.1020  -25.8930    3.7740 C.3     9  LEU9        0.0001
     58  CD2      103.2240  -23.5600    4.2720 C.3     9  LEU9        0.0001
     59  N        108.2190  -20.2860    5.0920 N.3    12  ILE12      -0.1245
     60  CA       107.3480  -19.7250    6.1160 C.3    12  ILE12       0.1561
     61  C        107.5320  -20.5550    7.3770 C.2    12  ILE12       0.2260
     62  O        107.8430  -20.0140    8.4370 O.2    12  ILE12      -0.2867
     63  CB       105.8740  -19.7190    5.6710 C.3    12  ILE12       0.0252
     64  CG1      105.6550  -18.6850    4.5630 C.3    12  ILE12       0.0019
     65  CG2      104.9350  -19.4050    6.8570 C.3    12  ILE12       0.0019
     66  CD1      105.6550  -17.2500    5.0480 C.3    12  ILE12       0.0001
     67  N        109.4850  -14.4690   -3.1920 N.3    37  VAL37      -0.1231
     68  CA       108.8140  -15.2250   -4.2740 C.3    37  VAL37       0.1692
     69  C        107.3540  -14.8490   -4.4380 C.2    37  VAL37       0.2592
     70  O        106.6680  -15.3540   -5.3320 O.2    37  VAL37      -0.2718
     71  CB       108.9440  -16.7720   -4.1240 C.3    37  VAL37       0.0266
     72  CG1      110.4040  -17.1770   -4.2410 C.3    37  VAL37       0.0020
     73  CG2      108.3050  -17.2800   -2.8200 C.3    37  VAL37       0.0020
     74  N        106.8970  -13.9420   -3.5870 N.am   38  CYS38      -0.1956
     75  CA       105.5150  -13.5510   -3.5440 C.3    38  CYS38       0.1843
     76  C        105.2870  -12.2780   -4.3730 C.2    38  CYS38       0.2626
     77  O        105.9320  -11.2420   -4.1640 O.2    38  CYS38      -0.2714
     78  CB       105.0990  -13.3450   -2.0880 C.3    38  CYS38       0.0997
     79  SG       103.4430  -12.7500   -1.8740 S.3    38  CYS38      -0.0797
     80  N        104.3760  -12.3930   -5.3340 N.am   39  GLY39      -0.1940
     81  CA       103.8740  -11.2690   -6.0690 C.3    39  GLY39       0.2014
     82  C        102.9140  -10.4980   -5.1800 C.2    39  GLY39       0.2639
     83  O        101.8260  -10.9870   -4.8040 O.2    39  GLY39      -0.2714
     84  N        103.3430   -9.2930   -4.8420 N.am   40  GLN40      -0.1963
     85  CA       102.6300   -8.4010   -3.9530 C.3    40  GLN40       0.1718
     86  C        102.3910   -9.0040   -2.5590 C.2    40  GLN40       0.2458
     87  O        101.3200   -9.5320   -2.2560 O.2    40  GLN40      -0.2730
     88  CB       101.3990   -7.7950   -4.6460 C.3    40  GLN40       0.0407
     89  CG       101.8020   -6.4710   -5.3550 C.3    40  GLN40       0.0908
     90  CD       101.0540   -6.1670   -6.6240 C.2    40  GLN40       0.2608
     91  OE1       99.8110   -6.1960   -6.6640 O.2    40  GLN40      -0.2717
     92  NE2      101.8020   -5.7990   -7.6720 N.am   40  GLN40      -0.0878
     93  N        103.4210   -8.9180   -1.7050 N.am   41  PRO41      -0.2716
     94  CA       103.4420   -9.4880   -0.3680 C.3    41  PRO41       0.1536
     95  C        102.7500   -8.6340    0.7000 C.2    41  PRO41       0.2598
     96  O        103.1200   -8.6990    1.8640 O.2    41  PRO41      -0.2715
     97  CB       104.9420   -9.5860   -0.0730 C.3    41  PRO41       0.0310
     98  CG       105.5480   -8.4490   -0.8030 C.3    41  PRO41       0.0237
     99  CD       104.6890   -8.2360   -2.0280 C.3    41  PRO41       0.0939
    100  N        101.7380   -7.8700    0.2990 N.am   42  GLN42      -0.1964
    101  CA       101.1140   -6.8630    1.1660 C.3    42  GLN42       0.1733
    102  C        100.5450   -7.5100    2.4340 C.2    42  GLN42       0.2616
    103  O        100.8650   -7.0900    3.5440 O.2    42  GLN42      -0.2715
    104  CB       100.0140   -6.0700    0.4400 C.3    42  GLN42       0.0408
    105  CG        99.9390   -6.2210   -1.0950 C.3    42  GLN42       0.0908
    106  CD       101.0250   -5.4530   -1.8740 C.2    42  GLN42       0.2608
    107  OE1      101.9940   -6.0370   -2.3490 O.2    42  GLN42      -0.2717
    108  NE2      100.8270   -4.1360   -2.0360 N.am   42  GLN42      -0.0878
    109  N         99.7320   -8.5490    2.2440 N.am   43  GLN43      -0.1963
    110  CA        99.1150   -9.3120    3.3380 C.3    43  GLN43       0.1733
    111  C        100.1670   -9.9210    4.2700 C.2    43  GLN43       0.2616
    112  O        100.1030   -9.7670    5.4810 O.2    43  GLN43      -0.2715
    113  CB        98.2420  -10.4380    2.7570 C.3    43  GLN43       0.0408
    114  CG        96.9920  -10.7930    3.5630 C.3    43  GLN43       0.0908
    115  CD        97.2820  -11.3150    4.9630 C.2    43  GLN43       0.2608
    116  OE1       98.2770  -12.0160    5.1950 O.2    43  GLN43      -0.2717
    117  NE2       96.4000  -10.9840    5.9050 N.am   43  GLN43      -0.0878
    118  N        101.1320  -10.6280    3.6960 N.am   44  LEU44      -0.1977
    119  CA       102.2000  -11.2360    4.4870 C.3    44  LEU44       0.1596
    120  C        102.9540  -10.1690    5.2900 C.2    44  LEU44       0.2287
    121  O        103.2140  -10.3650    6.4730 O.2    44  LEU44      -0.2864
    122  CB       103.1380  -12.0540    3.5950 C.3    44  LEU44       0.0297
    123  CG       104.1220  -13.0170    4.2840 C.3    44  LEU44       0.0022
    124  CD1      103.4860  -13.8090    5.4000 C.3    44  LEU44       0.0001
    125  CD2      104.7480  -13.9670    3.2650 C.3    44  LEU44       0.0001
@<TRIPOS>BOND
     1     5     2    1
     2     1     2    1
     3     2     3    1
     4     6     3   am
     5     6     7    1
     6     3     4    2
     7    11    10    1
     8    11    12    1
     9    21    19    1
    10    10     7    1
    11    92    90   am
    12     7     8    1
    13    29    28    2
    14    14    12   ar
    15    12    13   ar
    16     8     9    2
    17    19    20    1
    18    19    16    1
    19    91    90    2
    20    90    89    1
    21    15    16    1
    22    28    30   am
    23    28    27    1
    24    81    80    1
    25    81    82    1
    26    16    17    1
    27    89    88    1
    28    80    76   am
    29    70    69    2
    30    82    84   am
    31    82    83    2
    32    27    26    1
    33    22    17   am
    34    22    23    1
    35    84    85    1
    36    17    18    2
    37    88    85    1
    38    69    68    1
    39    69    74   am
    40    76    77    2
    41    76    75    1
    42    26    23    1
    43    68    71    1
    44    68    67    1
    45    72    71    1
    46    71    73    1
    47    85    86    1
    48    23    24    1
    49    74    75    1
    50    75    78    1
    51    31    24   am
    52    31    32    1
    53    37    38    1
    54    37    36    1
    55    35    32    1
    56    35    36    1
    57    24    25    2
    58    86    87    2
    59    86    93   am
    60   107   106    2
    61    32    33    1
    62    38    39    1
    63    78    79    1
    64   108   106   am
    65    99    93    1
    66    99    98    1
    67   106   105    1
    68    93    94    1
    69    33    34    2
    70   105   104    1
    71    40    41    1
    72    44    41    1
    73    44    45    1
    74    98    97    1
    75    94    97    1
    76    94    95    1
    77    41    42    1
    78    46    45   ar
    79    46    48   ar
    80    45    47   ar
    81   100    95   am
    82   100   101    1
    83   104   101    1
    84    95    96    2
    85    48    50   ar
    86    47    49   ar
    87   101   102    1
    88    42    51   am
    89    42    43    2
    90    51    52    1
    91    50    49   ar
    92    55    52    1
    93    55    56    1
    94   109   102   am
    95   109   110    1
    96   102   103    2
    97    52    53    1
    98   113   110    1
    99   113   114    1
   100    56    57    1
   101    56    58    1
   102   125   123    1
   103   110   111    1
   104    53    54    2
   105   114   115    1
   106   122   123    1
   107   122   119    1
   108   118   111   am
   109   118   119    1
   110   111   112    2
   111   123   124    1
   112   119   120    1
   113    64    66    1
   114    64    63    1
   115   115   116    2
   116   115   117   am
   117    59    60    1
   118   120   121    2
   119    63    60    1
   120    63    65    1
   121    60    61    1
   122    61    62    2
