@<TRIPOS>MOLECULE
tmp/2v1sF01.pdb
 115 108 0 0 0
SMALL
GASTEIGER

@<TRIPOS>ATOM
      1  N        107.7350  -21.7170   -0.8960 N.3     8  PHE8       -0.1227
      2  CA       107.1720  -20.6370   -0.0890 C.3     8  PHE8        0.1736
      3  C        106.7090  -21.1480    1.2800 C.2     8  PHE8        0.2595
      4  O        106.9990  -20.5420    2.2940 O.2     8  PHE8       -0.2718
      5  CB       106.0140  -19.9610   -0.8180 C.3     8  PHE8        0.0547
      6  CG       105.2980  -18.9370    0.0130 C.ar    8  PHE8       -0.0202
      7  CD1      105.6680  -17.6010   -0.0340 C.ar    8  PHE8       -0.0042
      8  CD2      104.2590  -19.3130    0.8670 C.ar    8  PHE8       -0.0042
      9  CE1      105.0190  -16.6660    0.7520 C.ar    8  PHE8       -0.0003
     10  CE2      103.6090  -18.3750    1.6490 C.ar    8  PHE8       -0.0003
     11  CZ       103.9860  -17.0640    1.5990 C.ar    8  PHE8       -0.0000
     12  N        106.0080  -22.2760    1.2840 N.am    9  LEU9       -0.1980
     13  CA       105.4920  -22.8770    2.5090 C.3     9  LEU9        0.1596
     14  C        106.6140  -23.3280    3.4510 C.2     9  LEU9        0.2287
     15  O        106.6080  -22.9980    4.6470 O.2     9  LEU9       -0.2864
     16  CB       104.5700  -24.0480    2.1450 C.3     9  LEU9        0.0297
     17  CG       103.5790  -24.5890    3.1800 C.3     9  LEU9        0.0022
     18  CD1      104.1020  -25.8930    3.7740 C.3     9  LEU9        0.0001
     19  CD2      103.2240  -23.5600    4.2720 C.3     9  LEU9        0.0001
     20  N        108.2190  -20.2860    5.0920 N.3    12  ILE12      -0.1231
     21  CA       107.3480  -19.7250    6.1160 C.3    12  ILE12       0.1692
     22  C        107.5320  -20.5550    7.3770 C.2    12  ILE12       0.2591
     23  O        107.8430  -20.0140    8.4370 O.2    12  ILE12      -0.2718
     24  CB       105.8740  -19.7190    5.6710 C.3    12  ILE12       0.0266
     25  CG1      105.6550  -18.6850    4.5630 C.3    12  ILE12       0.0019
     26  CG2      104.9350  -19.4050    6.8570 C.3    12  ILE12       0.0020
     27  CD1      105.6550  -17.2500    5.0480 C.3    12  ILE12       0.0001
     28  N        107.3920  -21.8720    7.2290 N.am   13  GLN13      -0.1979
     29  CA       107.5130  -22.8220    8.3440 C.3    13  GLN13       0.1601
     30  C        108.8800  -22.7570    9.0310 C.2    13  GLN13       0.2287
     31  O        108.9500  -22.7280   10.2640 O.2    13  GLN13      -0.2864
     32  CB       107.2580  -24.2480    7.8560 C.3    13  GLN13       0.0394
     33  CG       105.8250  -24.5320    7.4460 C.3    13  GLN13       0.0908
     34  CD       105.6430  -25.9660    6.9530 C.2    13  GLN13       0.2608
     35  OE1      106.2770  -26.3890    5.9690 O.2    13  GLN13      -0.2717
     36  NE2      104.7920  -26.7260    7.6390 N.am   13  GLN13      -0.0878
     37  N        109.1580  -19.3790   10.8610 N.3    16  GLU16      -0.1231
     38  CA       108.3170  -19.3960   12.0680 C.3    16  GLU16       0.1699
     39  C        108.8440  -20.3500   13.1360 C.2    16  GLU16       0.2592
     40  O        109.0710  -19.9430   14.2810 O.2    16  GLU16      -0.2718
     41  CB       106.8650  -19.7610   11.6940 C.3    16  GLU16       0.0402
     42  CG       105.9090  -20.0200   12.8740 C.3    16  GLU16       0.1161
     43  CD       105.7940  -18.8390   13.8270 C.2    16  GLU16       0.3649
     44  OE1      106.2640  -18.9490   14.9810 O.co2  16  GLU16      -0.2457
     45  OE2      105.2450  -17.7930   13.4170 O.co2  16  GLU16      -0.2457
     46  N        109.0370  -21.6190   12.7750 N.am   17  GLU17      -0.1979
     47  CA       109.5010  -22.6020   13.7520 C.3    17  GLU17       0.1602
     48  C        110.8080  -22.1270   14.3860 C.2    17  GLU17       0.2287
     49  O        111.0230  -22.2650   15.5900 O.2    17  GLU17      -0.2864
     50  CB       109.6390  -24.0080   13.1310 C.3    17  GLU17       0.0415
     51  CG       110.9190  -24.2710   12.3290 C.3    17  GLU17       0.1163
     52  CD       110.9500  -25.6550   11.6620 C.2    17  GLU17       0.3649
     53  OE1      110.1780  -26.5590   12.0650 O.co2  17  GLU17      -0.2457
     54  OE2      111.7630  -25.8380   10.7330 O.co2  17  GLU17      -0.2457
     55  N        110.2790  -19.1810   16.7020 N.3    20  ALA20      -0.1245
     56  CA       109.7410  -19.7140   17.9580 C.3    20  ALA20       0.1562
     57  C        110.8280  -20.2040   18.9150 C.2    20  ALA20       0.2260
     58  O        110.6840  -20.0750   20.1290 O.2    20  ALA20      -0.2867
     59  CB       108.7420  -20.8260   17.6710 C.3    20  ALA20       0.0290
     60  N        111.8950  -15.9330    6.1380 N.3    31  LEU31      -0.1245
     61  CA       110.7080  -15.1310    5.8490 C.3    31  LEU31       0.1561
     62  C        110.9510  -14.2080    4.6720 C.2    31  LEU31       0.2260
     63  O        110.0560  -14.0110    3.8660 O.2    31  LEU31      -0.2867
     64  CB       110.2470  -14.3250    7.0710 C.3    31  LEU31       0.0270
     65  CG       109.7670  -15.1870    8.2500 C.3    31  LEU31       0.0019
     66  CD1      109.4590  -14.3110    9.4410 C.3    31  LEU31       0.0001
     67  CD2      108.5590  -16.0410    7.8880 C.3    31  LEU31       0.0001
     68  N         99.7320   -8.5490    2.2440 N.3    43  GLN43      -0.1231
     69  CA        99.1150   -9.3120    3.3380 C.3    43  GLN43       0.1698
     70  C        100.1670   -9.9210    4.2700 C.2    43  GLN43       0.2592
     71  O        100.1030   -9.7670    5.4810 O.2    43  GLN43      -0.2718
     72  CB        98.2420  -10.4380    2.7570 C.3    43  GLN43       0.0381
     73  CG        96.9920  -10.7930    3.5630 C.3    43  GLN43       0.0905
     74  CD        97.2820  -11.3150    4.9630 C.2    43  GLN43       0.2608
     75  OE1       98.2770  -12.0160    5.1950 O.2    43  GLN43      -0.2717
     76  NE2       96.4000  -10.9840    5.9050 N.am   43  GLN43      -0.0878
     77  N        101.1320  -10.6280    3.6960 N.am   44  LEU44      -0.1980
     78  CA       102.2000  -11.2360    4.4870 C.3    44  LEU44       0.1596
     79  C        102.9540  -10.1690    5.2900 C.2    44  LEU44       0.2287
     80  O        103.2140  -10.3650    6.4730 O.2    44  LEU44      -0.2864
     81  CB       103.1380  -12.0540    3.5950 C.3    44  LEU44       0.0297
     82  CG       104.1220  -13.0170    4.2840 C.3    44  LEU44       0.0022
     83  CD1      103.4860  -13.8090    5.4000 C.3    44  LEU44       0.0001
     84  CD2      104.7480  -13.9670    3.2650 C.3    44  LEU44       0.0001
     85  N        100.6910   -9.1060    8.2810 N.3    47  VAL47      -0.1231
     86  CA       100.6180  -10.0650    9.3890 C.3    47  VAL47       0.1692
     87  C        101.9360  -10.1970   10.1700 C.2    47  VAL47       0.2591
     88  O        101.9180  -10.3430   11.4010 O.2    47  VAL47      -0.2718
     89  CB       100.1550  -11.4420    8.8830 C.3    47  VAL47       0.0266
     90  CG1      100.2490  -12.4960    9.9870 C.3    47  VAL47       0.0020
     91  CG2       98.7350  -11.3400    8.3520 C.3    47  VAL47       0.0020
     92  N        103.0680  -10.1210    9.4670 N.am   48  LEU48      -0.1980
     93  CA       104.3830  -10.1390   10.1220 C.3    48  LEU48       0.1596
     94  C        104.6150   -8.8720   10.9470 C.2    48  LEU48       0.2287
     95  O        105.1400   -8.9400   12.0460 O.2    48  LEU48      -0.2864
     96  CB       105.5140  -10.3290    9.1010 C.3    48  LEU48       0.0297
     97  CG       105.5330  -11.6710    8.3550 C.3    48  LEU48       0.0022
     98  CD1      106.5390  -11.6490    7.2160 C.3    48  LEU48       0.0001
     99  CD2      105.8380  -12.8200    9.3120 C.3    48  LEU48       0.0001
    100  N        102.4080   -7.3400   12.5710 N.3    50  GLN50      -0.1231
    101  CA       101.5790   -7.4520   13.7850 C.3    50  GLN50       0.1698
    102  C        101.9230   -8.6250   14.7110 C.2    50  GLN50       0.2592
    103  O        101.5020   -8.6360   15.8770 O.2    50  GLN50      -0.2718
    104  CB       100.0970   -7.4920   13.4000 C.3    50  GLN50       0.0381
    105  CG        99.6030   -8.7920   12.8040 C.3    50  GLN50       0.0905
    106  CD        98.5880   -9.4870   13.6810 C.2    50  GLN50       0.2608
    107  OE1       98.9320  -10.3280   14.5130 O.2    50  GLN50      -0.2717
    108  NE2       97.3240   -9.1280   13.5080 N.am   50  GLN50      -0.0878
    109  N        102.6670   -9.6110   14.1990 N.am   51  THR51      -0.1953
    110  CA       103.0580  -10.7900   14.9750 C.3    51  THR51       0.1897
    111  C        104.4780  -10.6840   15.5210 C.2    51  THR51       0.2313
    112  O        104.7340  -11.0600   16.6670 O.2    51  THR51      -0.2863
    113  CB       102.9790  -12.0620   14.1250 C.3    51  THR51       0.1794
    114  OG1      103.7400  -11.8800   12.9240 O.3    51  THR51      -0.2208
    115  CG2      101.5390  -12.3810   13.7650 C.3    51  THR51       0.0378
@<TRIPOS>BOND
     1     1     2    1
     2     5     2    1
     3     5     6    1
     4     2     3    1
     5     7     6   ar
     6     7     9   ar
     7     6     8   ar
     8     9    11   ar
     9     8    10   ar
    10     3    12   am
    11     3     4    2
    12    12    13    1
    13    11    10   ar
    14    16    13    1
    15    16    17    1
    16    68    69    1
    17    13    14    1
    18    72    69    1
    19    72    73    1
    20    17    18    1
    21    17    19    1
    22    84    82    1
    23    69    70    1
    24    14    15    2
    25    73    74    1
    26    81    82    1
    27    81    78    1
    28    77    70   am
    29    77    78    1
    30    63    62    2
    31    70    71    2
    32    82    83    1
    33    78    79    1
    34    25    27    1
    35    25    24    1
    36    62    61    1
    37    74    75    2
    38    74    76   am
    39    20    21    1
    40    79    80    2
    41    24    21    1
    42    24    26    1
    43    61    60    1
    44    61    64    1
    45    35    34    2
    46    21    22    1
    47    34    33    1
    48    34    36   am
    49    64    65    1
    50    98    97    1
    51    28    22   am
    52    28    29    1
    53    22    23    2
    54    33    32    1
    55    32    29    1
    56    67    65    1
    57    65    66    1
    58    85    86    1
    59    29    30    1
    60    91    89    1
    61    97    96    1
    62    97    99    1
    63    89    86    1
    64    89    90    1
    65    30    31    2
    66    96    93    1
    67    86    87    1
    68    92    93    1
    69    92    87   am
    70    93    94    1
    71    87    88    2
    72    54    52   ar
    73    37    38    1
    74    94    95    2
    75    52    53   ar
    76    52    51    1
    77    41    38    1
    78    41    42    1
    79    38    39    1
    80    51    50    1
    81   100   101    1
    82    46    39   am
    83    46    47    1
    84   105   104    1
    85   105   106    1
    86    42    43    1
    87   114   113    1
    88    50    47    1
    89    39    40    2
    90   104   101    1
    91    45    43   ar
    92   108   106   am
    93   106   107    2
    94    47    48    1
    95   115   113    1
    96   101   102    1
    97    43    44   ar
    98   113   110    1
    99   109   102   am
   100   109   110    1
   101    48    49    2
   102   102   103    2
   103   110   111    1
   104   111   112    2
   105    55    56    1
   106    59    56    1
   107    56    57    1
   108    57    58    2
