@<TRIPOS>MOLECULE
tmp/2v1sE00.pdb
 108 101 0 0 0
SMALL
GASTEIGER

@<TRIPOS>ATOM
      1  N        112.4560   16.0300    8.2790 N.3    15  PHE15      -0.1227
      2  CA       111.6530   15.0100    8.9110 C.3    15  PHE15       0.1736
      3  C        110.2430   15.5270    9.3000 C.2    15  PHE15       0.2595
      4  O        109.2290   14.9060    8.9530 O.2    15  PHE15      -0.2718
      5  CB       112.3850   14.4010   10.1260 C.3    15  PHE15       0.0547
      6  CG       111.5370   13.4140   10.9000 C.ar   15  PHE15      -0.0202
      7  CD1      111.3920   12.0950   10.4610 C.ar   15  PHE15      -0.0042
      8  CD2      110.8760   13.8030   12.0490 C.ar   15  PHE15      -0.0042
      9  CE1      110.5820   11.2070   11.1340 C.ar   15  PHE15      -0.0003
     10  CE2      110.0500   12.9240   12.7230 C.ar   15  PHE15      -0.0003
     11  CZ       109.9090   11.6160   12.2640 C.ar   15  PHE15      -0.0000
     12  N        110.1980   16.6680    9.9700 N.am   16  LEU16      -0.1980
     13  CA       108.9550   17.2300   10.4700 C.3    16  LEU16       0.1596
     14  C        108.0990   17.7770    9.3270 C.2    16  LEU16       0.2287
     15  O        106.8900   17.6270    9.3570 O.2    16  LEU16      -0.2864
     16  CB       109.2310   18.3170   11.5080 C.3    16  LEU16       0.0297
     17  CG       108.0220   18.9920   12.1860 C.3    16  LEU16       0.0022
     18  CD1      107.0860   17.9460   12.7650 C.3    16  LEU16       0.0001
     19  CD2      108.4550   20.0120   13.2410 C.3    16  LEU16       0.0001
     20  N        106.5380   14.5690    7.6990 N.3    19  ILE19      -0.1231
     21  CA       105.4490   14.1220    8.5560 C.3    19  ILE19       0.1692
     22  C        104.2080   15.0170    8.3610 C.2    19  ILE19       0.2591
     23  O        103.1030   14.5180    8.1410 O.2    19  ILE19      -0.2718
     24  CB       105.8680   14.1320   10.0480 C.3    19  ILE19       0.0266
     25  CG1      106.8710   12.9990   10.3510 C.3    19  ILE19       0.0019
     26  CG2      104.6380   14.0720   10.9690 C.3    19  ILE19       0.0020
     27  CD1      106.3960   11.5920    9.9940 C.3    19  ILE19       0.0001
     28  N        104.3850   16.3290    8.4580 N.am   20  GLN20      -0.1979
     29  CA       103.2490   17.2660    8.3190 C.3    20  GLN20       0.1601
     30  C        102.5760   17.2210    6.9510 C.2    20  GLN20       0.2287
     31  O        101.3520   17.3140    6.8590 O.2    20  GLN20      -0.2864
     32  CB       103.7020   18.6990    8.5950 C.3    20  GLN20       0.0394
     33  CG       104.0190   18.9470   10.0460 C.3    20  GLN20       0.0908
     34  CD       104.7510   20.2510   10.2850 C.2    20  GLN20       0.2608
     35  OE1      104.5190   20.9120   11.2960 O.2    20  GLN20      -0.2717
     36  NE2      105.6610   20.6220    9.3680 N.am   20  GLN20      -0.0878
     37  N        100.7530   13.8800    6.5240 N.3    23  GLU23      -0.1245
     38  CA        99.5340   14.0140    7.3000 C.3    23  GLU23       0.1567
     39  C         98.4680   14.8160    6.5420 C.2    23  GLU23       0.2260
     40  O         97.3270   14.3760    6.4180 O.2    23  GLU23      -0.2867
     41  CB        99.9020   14.6970    8.6050 C.3    23  GLU23       0.0388
     42  CG        98.8070   14.9250    9.5710 C.3    23  GLU23       0.1160
     43  CD        99.3710   15.2430   10.9510 C.2    23  GLU23       0.3649
     44  OE1       98.9500   14.5830   11.9310 O.co2  23  GLU23      -0.2457
     45  OE2      100.2530   16.1310   11.0390 O.co2  23  GLU23      -0.2457
     46  N         97.1530   13.0050    3.2840 N.3    26  LEU26      -0.1245
     47  CA        96.2600   11.9230    3.6670 C.3    26  LEU26       0.1561
     48  C         94.8370   12.3990    3.9450 C.2    26  LEU26       0.2260
     49  O         93.8710   11.7500    3.5280 O.2    26  LEU26      -0.2867
     50  CB        96.8060   11.2000    4.9020 C.3    26  LEU26       0.0270
     51  CG        97.6960    9.9600    4.7550 C.3    26  LEU26       0.0019
     52  CD1       98.3140    9.7400    3.3930 C.3    26  LEU26       0.0001
     53  CD2       98.7660    9.9760    5.8230 C.3    26  LEU26       0.0001
     54  N        105.5380   10.1540    4.0370 N.3    38  LEU38      -0.1245
     55  CA       105.7630    9.3580    5.2430 C.3    38  LEU38       0.1561
     56  C        106.9700    8.4270    5.0670 C.2    38  LEU38       0.2260
     57  O        107.7200    8.1990    6.0050 O.2    38  LEU38      -0.2867
     58  CB       104.4860    8.5690    5.6120 C.3    38  LEU38       0.0270
     59  CG       103.5570    9.1690    6.6950 C.3    38  LEU38       0.0019
     60  CD1      103.6160   10.6790    6.7900 C.3    38  LEU38       0.0001
     61  CD2      102.1050    8.7140    6.5620 C.3    38  LEU38       0.0001
     62  N        109.5560    3.0080   16.4640 N.3    50  GLN50      -0.1231
     63  CA       108.5730    3.7270   17.2580 C.3    50  GLN50       0.1698
     64  C        107.6450    4.5380   16.3660 C.2    50  GLN50       0.2592
     65  O        106.4520    4.6200   16.6360 O.2    50  GLN50      -0.2718
     66  CB       109.2560    4.6180   18.3070 C.3    50  GLN50       0.0381
     67  CG       109.8810    3.8020   19.4470 C.3    50  GLN50       0.0905
     68  CD       110.2570    4.6270   20.6840 C.2    50  GLN50       0.2608
     69  OE1      110.6610    5.7880   20.5820 O.2    50  GLN50      -0.2717
     70  NE2      110.1560    4.0010   21.8660 N.am   50  GLN50      -0.0878
     71  N        108.2010    5.1100   15.2990 N.am   51  LEU51      -0.1980
     72  CA       107.4370    5.8770   14.3260 C.3    51  LEU51       0.1596
     73  C        106.4090    4.9830   13.6390 C.2    51  LEU51       0.2287
     74  O        105.3020    5.4030   13.4410 O.2    51  LEU51      -0.2864
     75  CB       108.3510    6.5510   13.2710 C.3    51  LEU51       0.0297
     76  CG       107.6430    7.3020   12.1210 C.3    51  LEU51       0.0022
     77  CD1      106.6630    8.3850   12.6420 C.3    51  LEU51       0.0001
     78  CD2      108.6500    7.9070   11.1380 C.3    51  LEU51       0.0001
     79  N        103.3610    4.3050   16.0080 N.3    54  VAL54      -0.1231
     80  CA       102.5460    5.5140   15.9910 C.3    54  VAL54       0.1692
     81  C        101.6810    5.5870   14.7310 C.2    54  VAL54       0.2591
     82  O        100.4860    5.8400   14.8080 O.2    54  VAL54      -0.2718
     83  CB       103.4160    6.7880   16.0770 C.3    54  VAL54       0.0266
     84  CG1      102.5830    8.0240   15.8060 C.3    54  VAL54       0.0020
     85  CG2      104.0940    6.9050   17.4680 C.3    54  VAL54       0.0020
     86  N        102.3110    5.3970   13.5760 N.am   55  LEU55      -0.1980
     87  CA       101.6370    5.3350   12.2850 C.3    55  LEU55       0.1596
     88  C        100.5400    4.2430   12.2180 C.2    55  LEU55       0.2287
     89  O         99.4330    4.5040   11.7250 O.2    55  LEU55      -0.2864
     90  CB       102.6840    5.1490   11.1730 C.3    55  LEU55       0.0297
     91  CG       103.3990    6.4140   10.6540 C.3    55  LEU55       0.0022
     92  CD1      103.7170    7.3710   11.7410 C.3    55  LEU55       0.0001
     93  CD2      104.6920    6.1280    9.8680 C.3    55  LEU55       0.0001
     94  N         97.6790    5.5150   13.9320 N.3    58  THR58      -0.1203
     95  CA        97.2790    6.8060   13.3860 C.3    58  THR58       0.1994
     96  C         96.5020    6.6760   12.0710 C.2    58  THR58       0.2617
     97  O         95.5540    7.3970   11.8460 O.2    58  THR58      -0.2717
     98  CB        98.5520    7.6490   13.1040 C.3    58  THR58       0.1784
     99  OG1       99.0240    8.2200   14.3280 O.3    58  THR58      -0.2211
    100  CG2       98.2840    8.7360   12.0860 C.3    58  THR58       0.0376
    101  N         96.9590    5.7720   11.2110 N.am   59  LEU59      -0.1979
    102  CA        96.4750    5.6110    9.8430 C.3    59  LEU59       0.1596
    103  C         95.3720    4.5640    9.7200 C.2    59  LEU59       0.2287
    104  O         95.3210    3.6290   10.5230 O.2    59  LEU59      -0.2864
    105  CB        97.6260    5.1740    8.9280 C.3    59  LEU59       0.0297
    106  CG        98.8170    6.1130    8.7370 C.3    59  LEU59       0.0022
    107  CD1       99.7760    5.5500    7.6610 C.3    59  LEU59       0.0001
    108  CD2       98.3650    7.5070    8.3670 C.3    59  LEU59       0.0001
@<TRIPOS>BOND
     1    46    47    1
     2    52    51    1
     3    49    48    2
     4    47    48    1
     5    47    50    1
     6    54    55    1
     7    51    50    1
     8    51    53    1
     9    56    55    1
    10    56    57    2
    11    55    58    1
    12    58    59    1
    13    40    39    2
    14    37    38    1
    15    39    38    1
    16    61    59    1
    17    59    60    1
    18    31    30    2
    19    30    29    1
    20    38    41    1
    21   107   106    1
    22    20    21    1
    23    23    22    2
    24     1     2    1
    25    29    28    1
    26    29    32    1
    27    22    28   am
    28    22    21    1
    29   108   106    1
    30    21    24    1
    31    32    33    1
    32    41    42    1
    33   106   105    1
    34     2     3    1
    35     2     5    1
    36   105   102    1
    37     4     3    2
    38     3    12   am
    39    14    15    2
    40    14    13    1
    41    36    34   am
    42    42    43    1
    43   103   102    1
    44   103   104    2
    45   102   101    1
    46    93    91    1
    47    12    13    1
    48    27    25    1
    49    33    34    1
    50    24    25    1
    51    24    26    1
    52     5     6    1
    53    34    35    2
    54     7     6   ar
    55     7     9   ar
    56    13    16    1
    57    91    90    1
    58    91    92    1
    59     6     8   ar
    60    43    45   ar
    61    43    44   ar
    62     9    11   ar
    63    78    76    1
    64    90    87    1
    65   101    96   am
    66    16    17    1
    67    89    88    2
    68    97    96    2
    69     8    10   ar
    70    96    95    1
    71   100    98    1
    72    76    77    1
    73    76    75    1
    74    17    18    1
    75    17    19    1
    76    88    87    1
    77    11    10   ar
    78    87    86    1
    79    98    95    1
    80    98    99    1
    81    75    72    1
    82    95    94    1
    83    74    73    2
    84    86    81   am
    85    73    72    1
    86    72    71    1
    87    81    82    2
    88    81    80    1
    89    71    64   am
    90    84    83    1
    91    80    79    1
    92    80    83    1
    93    83    85    1
    94    64    65    2
    95    64    63    1
    96    62    63    1
    97    63    66    1
    98    66    67    1
    99    67    68    1
   100    69    68    2
   101    68    70   am
