@<TRIPOS>MOLECULE
tmp/2v1uA00.pdb
 197 189 0 0 0
SMALL
GASTEIGER

@<TRIPOS>ATOM
      1  N        -12.1670   -4.7290  -24.2160 N.3    12  LEU12      -0.1231
      2  CA       -12.2450   -5.1780  -22.8300 C.3    12  LEU12       0.1693
      3  C        -13.4690   -6.0490  -22.5780 C.2    12  LEU12       0.2592
      4  O        -13.5370   -6.7520  -21.5730 O.2    12  LEU12      -0.2718
      5  CB       -12.2670   -3.9850  -21.8710 C.3    12  LEU12       0.0284
      6  CG       -11.0540   -3.0550  -21.9190 C.3    12  LEU12       0.0019
      7  CD1      -11.2270   -1.8880  -20.9590 C.3    12  LEU12       0.0001
      8  CD2       -9.7680   -3.8170  -21.6330 C.3    12  LEU12       0.0001
      9  N        -14.4700   -5.9510  -23.4420 N.am   13  LEU13      -0.1966
     10  CA       -15.7360   -6.6100  -23.1600 C.3    13  LEU13       0.1713
     11  C        -15.5220   -8.1150  -23.0810 C.2    13  LEU13       0.2458
     12  O        -14.4990   -8.6240  -23.5390 O.2    13  LEU13      -0.2730
     13  CB       -16.7880   -6.2520  -24.2090 C.3    13  LEU13       0.0310
     14  CG       -17.6650   -5.0530  -23.8420 C.3    13  LEU13       0.0022
     15  CD1      -18.3640   -4.4950  -25.0720 C.3    13  LEU13       0.0001
     16  CD2      -18.6750   -5.4420  -22.7730 C.3    13  LEU13       0.0001
     17  N        -16.4690   -8.8310  -22.4610 N.am   14  PRO14      -0.2727
     18  CA       -16.2470  -10.2290  -22.1130 C.3    14  PRO14       0.1402
     19  C        -16.1600  -11.1850  -23.3080 C.2    14  PRO14       0.2269
     20  O        -16.0800  -12.3960  -23.1110 O.2    14  PRO14      -0.2865
     21  CB       -17.4630  -10.5630  -21.2430 C.3    14  PRO14       0.0296
     22  CG       -18.5260   -9.6230  -21.7140 C.3    14  PRO14       0.0237
     23  CD       -17.7980   -8.3530  -22.0420 C.3    14  PRO14       0.0939
     24  N        -14.3130  -10.2590  -26.6330 N.3    16  TYR16      -0.1241
     25  CA       -13.1360  -10.0620  -27.4680 C.3    16  TYR16       0.1605
     26  C        -12.1370  -11.1370  -27.0810 C.2    16  TYR16       0.2264
     27  O        -11.6660  -11.1640  -25.9460 O.2    16  TYR16      -0.2867
     28  CB       -12.5350   -8.6710  -27.2450 C.3    16  TYR16       0.0534
     29  CG       -11.2420   -8.4170  -27.9860 C.ar   16  TYR16      -0.0201
     30  CD1      -11.2430   -8.0730  -29.3320 C.ar   16  TYR16      -0.0009
     31  CD2      -10.0220   -8.4590  -27.3240 C.ar   16  TYR16      -0.0009
     32  CE1      -10.0600   -7.8230  -30.0070 C.ar   16  TYR16       0.0417
     33  CE2       -8.8360   -8.2190  -27.9900 C.ar   16  TYR16       0.0417
     34  CZ        -8.8580   -7.9040  -29.3320 C.ar   16  TYR16       0.1957
     35  OH        -7.6780   -7.6560  -29.9950 O.3    16  TYR16      -0.2866
     36  N         -8.5810  -11.8270  -27.7880 N.3    18  PRO18      -0.2116
     37  CA        -7.4360  -11.1130  -28.3360 C.3    18  PRO18       0.1372
     38  C         -6.5830  -12.0350  -29.1960 C.2    18  PRO18       0.2244
     39  O         -6.8740  -13.2240  -29.3140 O.2    18  PRO18      -0.2868
     40  CB        -6.6530  -10.7100  -27.0880 C.3    18  PRO18       0.0268
     41  CG        -6.9870  -11.7590  -26.0990 C.3    18  PRO18       0.0207
     42  CD        -8.4310  -12.0810  -26.3450 C.3    18  PRO18       0.0892
     43  N         -2.9240  -11.8080  -29.1430 N.3    20  VAL20      -0.1231
     44  CA        -1.8450  -12.2640  -28.2810 C.3    20  VAL20       0.1692
     45  C         -2.3870  -12.5570  -26.8840 C.2    20  VAL20       0.2592
     46  O         -3.3180  -11.8970  -26.4220 O.2    20  VAL20      -0.2718
     47  CB        -0.6860  -11.2470  -28.2290 C.3    20  VAL20       0.0266
     48  CG1       -1.2150   -9.8290  -28.1200 C.3    20  VAL20       0.0020
     49  CG2        0.2540  -11.5650  -27.0750 C.3    20  VAL20       0.0020
     50  N         -1.8780  -13.6170  -26.2640 N.am   21  LEU21      -0.1966
     51  CA        -2.2360  -13.9550  -24.8930 C.3    21  LEU21       0.1713
     52  C         -0.9710  -14.1710  -24.0780 C.2    21  LEU21       0.2458
     53  O         -0.3670  -15.2420  -24.1350 O.2    21  LEU21      -0.2730
     54  CB        -3.0730  -15.2310  -24.8550 C.3    21  LEU21       0.0310
     55  CG        -4.3690  -15.2180  -25.6600 C.3    21  LEU21       0.0022
     56  CD1       -4.9550  -16.6200  -25.7410 C.3    21  LEU21       0.0001
     57  CD2       -5.3550  -14.2520  -25.0280 C.3    21  LEU21       0.0001
     58  N         -0.5490  -13.1420  -23.3350 N.am   22  PRO22      -0.2727
     59  CA         0.6910  -13.2470  -22.5770 C.3    22  PRO22       0.1402
     60  C          0.6140  -14.3570  -21.5350 C.2    22  PRO22       0.2269
     61  O         -0.4380  -14.5590  -20.9270 O.2    22  PRO22      -0.2865
     62  CB         0.8000  -11.8780  -21.9020 C.3    22  PRO22       0.0296
     63  CG         0.0120  -10.9690  -22.7760 C.3    22  PRO22       0.0237
     64  CD        -1.1490  -11.8040  -23.2230 C.3    22  PRO22       0.0939
     65  N          0.2770  -17.4500  -21.5430 N.3    24  ARG24      -0.1245
     66  CA        -0.3170  -18.7160  -21.9500 C.3    24  ARG24       0.1563
     67  C          0.0190  -19.0150  -23.4040 C.2    24  ARG24       0.2260
     68  O         -0.8580  -19.3430  -24.2020 O.2    24  ARG24      -0.2867
     69  CB        -1.8310  -18.6990  -21.7490 C.3    24  ARG24       0.0307
     70  CG        -2.2620  -18.2810  -20.3560 C.3    24  ARG24       0.0489
     71  CD        -2.6740  -19.4790  -19.5290 C.3    24  ARG24       0.2205
     72  NE        -3.3200  -19.0760  -18.2840 N.pl3  24  ARG24      -0.0865
     73  CZ        -3.2960  -19.7970  -17.1680 C.cat  24  ARG24       0.5346
     74  NH1       -2.6500  -20.9560  -17.1370 N.pl3  24  ARG24       0.1354
     75  NH2       -3.9080  -19.3560  -16.0790 N.pl3  24  ARG24       0.1354
     76  N        -11.2540  -20.5410  -12.9180 N.3    53  THR53      -0.1203
     77  CA       -11.8760  -19.4300  -13.6310 C.3    53  THR53       0.1994
     78  C        -10.8950  -18.2730  -13.7450 C.2    53  THR53       0.2618
     79  O        -10.1940  -17.9470  -12.7880 O.2    53  THR53      -0.2717
     80  CB       -13.1420  -18.9120  -12.9260 C.3    53  THR53       0.1784
     81  OG1      -12.9470  -18.9620  -11.5090 O.3    53  THR53      -0.2211
     82  CG2      -14.3590  -19.7430  -13.2980 C.3    53  THR53       0.0376
     83  N        -10.8440  -17.6720  -14.9280 N.am   54  GLY54      -0.1942
     84  CA        -9.9740  -16.5290  -15.1650 C.3    54  GLY54       0.2014
     85  C         -8.5580  -16.9660  -15.4680 C.2    54  GLY54       0.2640
     86  O         -7.6210  -16.1750  -15.3870 O.2    54  GLY54      -0.2714
     87  N         -8.3990  -18.2350  -15.8200 N.am   55  THR55      -0.1936
     88  CA        -7.0900  -18.7290  -16.2190 C.3    55  THR55       0.2028
     89  C         -6.8540  -18.5590  -17.7170 C.2    55  THR55       0.2643
     90  O         -5.7220  -18.6680  -18.1920 O.2    55  THR55      -0.2714
     91  CB        -6.8480  -20.1860  -15.7760 C.3    55  THR55       0.1808
     92  OG1       -7.9560  -21.0080  -16.1660 O.3    55  THR55      -0.2208
     93  CG2       -6.6700  -20.2560  -14.2660 C.3    55  THR55       0.0379
     94  N         -7.9150  -18.2310  -18.4480 N.am   56  GLY56      -0.1939
     95  CA        -7.7970  -17.9590  -19.8770 C.3    56  GLY56       0.2014
     96  C         -7.8800  -19.2120  -20.7280 C.2    56  GLY56       0.2639
     97  O         -7.2940  -19.2890  -21.8100 O.2    56  GLY56      -0.2714
     98  N         -8.6140  -20.2040  -20.2360 N.am   57  LYS57      -0.1963
     99  CA        -8.8140  -21.4310  -20.9910 C.3    57  LYS57       0.1728
    100  C         -9.6050  -21.1020  -22.2470 C.2    57  LYS57       0.2617
    101  O         -9.0700  -21.1690  -23.3530 O.2    57  LYS57      -0.2715
    102  CB        -9.5490  -22.4750  -20.1470 C.3    57  LYS57       0.0311
    103  CG        -8.7840  -22.9110  -18.9050 C.3    57  LYS57       0.0038
    104  CD        -9.6900  -23.5580  -17.8690 C.3    57  LYS57       0.0206
    105  CE       -10.5440  -22.5310  -17.1440 C.3    57  LYS57       0.1093
    106  NZ       -11.8920  -22.3830  -17.8040 N.3    57  LYS57      -0.1314
    107  N        -10.8410  -20.6530  -22.0530 N.am   58  THR58      -0.1937
    108  CA       -11.7130  -20.2330  -23.1480 C.3    58  THR58       0.2028
    109  C        -11.0280  -19.2990  -24.1430 C.2    58  THR58       0.2642
    110  O        -11.1430  -19.4840  -25.3540 O.2    58  THR58      -0.2714
    111  CB       -12.9880  -19.5370  -22.6320 C.3    58  THR58       0.1808
    112  OG1      -13.4590  -20.1920  -21.4460 O.3    58  THR58      -0.2208
    113  CG2      -14.0760  -19.5700  -23.6950 C.3    58  THR58       0.0379
    114  N        -10.3720  -18.2590  -23.6350 N.am   59  ALA59      -0.1977
    115  CA        -9.5840  -17.3650  -24.4750 C.3    59  ALA59       0.1597
    116  C         -8.7380  -18.1390  -25.4820 C.2    59  ALA59       0.2287
    117  O         -8.8390  -17.9280  -26.6900 O.2    59  ALA59      -0.2864
    118  CB        -8.6970  -16.4830  -23.6160 C.3    59  ALA59       0.0319
    119  N        -16.7570  -26.1990  -20.4420 N.3   138  GLU138     -0.1245
    120  CA       -17.4120  -26.3310  -19.1450 C.3   138  GLU138      0.1567
    121  C        -18.3550  -27.5310  -19.0830 C.2   138  GLU138      0.2260
    122  O        -19.5110  -27.4040  -18.6790 O.2   138  GLU138     -0.2867
    123  CB       -18.1500  -25.0400  -18.7800 C.3   138  GLU138      0.0388
    124  CG       -17.2530  -23.9610  -18.1920 C.3   138  GLU138      0.1160
    125  CD       -17.7890  -22.5570  -18.4100 C.2   138  GLU138      0.3649
    126  OE1      -18.4200  -22.0100  -17.4800 O.co2 138  GLU138     -0.2457
    127  OE2      -17.5580  -21.9900  -19.5010 O.co2 138  GLU138     -0.2457
    128  N        -13.2620  -26.4680  -15.0710 N.3   170  ASN170     -0.1240
    129  CA       -12.5580  -25.6780  -14.0720 C.3   170  ASN170      0.1653
    130  C        -12.4220  -26.3730  -12.7210 C.2   170  ASN170      0.2266
    131  O        -12.5640  -25.7350  -11.6750 O.2   170  ASN170     -0.2867
    132  CB       -13.2510  -24.3260  -13.8940 C.3   170  ASN170      0.1155
    133  CG       -13.1370  -23.4480  -15.1240 C.2   170  ASN170      0.2627
    134  OD1      -12.0670  -23.3340  -15.7200 O.2   170  ASN170     -0.2716
    135  ND2      -14.2390  -22.8080  -15.4990 N.am  170  ASN170     -0.0877
    136  N         -2.2320  -17.5570  -12.2560 N.3   196  TYR196     -0.1241
    137  CA        -1.5770  -16.3190  -12.6620 C.3   196  TYR196      0.1605
    138  C         -0.9650  -15.6600  -11.4340 C.2   196  TYR196      0.2264
    139  O         -1.6880  -15.1760  -10.5620 O.2   196  TYR196     -0.2867
    140  CB        -2.5970  -15.3500  -13.2760 C.3   196  TYR196      0.0534
    141  CG        -3.0130  -15.6650  -14.6980 C.ar  196  TYR196     -0.0201
    142  CD1       -2.0700  -15.7960  -15.7110 C.ar  196  TYR196     -0.0009
    143  CD2       -4.3560  -15.7780  -15.0400 C.ar  196  TYR196     -0.0009
    144  CE1       -2.4500  -16.0880  -17.0120 C.ar  196  TYR196      0.0417
    145  CE2       -4.7460  -16.0540  -16.3410 C.ar  196  TYR196      0.0417
    146  CZ        -3.7890  -16.2170  -17.3220 C.ar  196  TYR196      0.1957
    147  OH        -4.1690  -16.5110  -18.6140 O.3   196  TYR196     -0.2866
    148  N         -0.7430   -8.9350  -18.5130 N.3   204  ILE204     -0.1245
    149  CA        -1.9310   -9.0960  -19.3470 C.3   204  ILE204      0.1561
    150  C         -2.6460   -7.7680  -19.5610 C.2   204  ILE204      0.2260
    151  O         -2.6850   -7.2530  -20.6770 O.2   204  ILE204     -0.2867
    152  CB        -2.9310  -10.0860  -18.7350 C.3   204  ILE204      0.0252
    153  CG1       -2.4880  -11.5240  -19.0040 C.3   204  ILE204      0.0019
    154  CG2       -4.3230   -9.8330  -19.2890 C.3   204  ILE204      0.0019
    155  CD1       -2.5700  -12.4130  -17.7870 C.3   204  ILE204      0.0001
    156  N         -1.1190   -5.2420  -21.6070 N.3   207  THR207     -0.1203
    157  CA        -1.3380   -5.4700  -23.0290 C.3   207  THR207      0.1994
    158  C         -2.7200   -4.9960  -23.4510 C.2   207  THR207      0.2617
    159  O         -2.8450   -4.1390  -24.3250 O.2   207  THR207     -0.2717
    160  CB        -1.1900   -6.9570  -23.3910 C.3   207  THR207      0.1784
    161  OG1        0.1920   -7.3300  -23.3270 O.3   207  THR207     -0.2211
    162  CG2       -1.7180   -7.2160  -24.7960 C.3   207  THR207      0.0376
    163  N         -3.7530   -5.5500  -22.8240 N.am  208  ARG208     -0.1979
    164  CA        -5.1220   -5.2040  -23.1790 C.3   208  ARG208      0.1597
    165  C         -5.3080   -3.6970  -23.0810 C.2   208  ARG208      0.2287
    166  O         -6.2090   -3.1290  -23.6990 O.2   208  ARG208     -0.2864
    167  CB        -6.1120   -5.9240  -22.2660 C.3   208  ARG208      0.0334
    168  CG        -6.2280   -7.4170  -22.5400 C.3   208  ARG208      0.0492
    169  CD        -7.1160   -7.7020  -23.7400 C.3   208  ARG208      0.2205
    170  NE        -8.0060   -8.8310  -23.4840 N.pl3 208  ARG208     -0.0865
    171  CZ        -9.3310   -8.7650  -23.5600 C.cat 208  ARG208      0.5346
    172  NH1       -9.9190   -7.6260  -23.9000 N.pl3 208  ARG208      0.1354
    173  NH2      -10.0660   -9.8380  -23.3070 N.pl3 208  ARG208      0.1354
    174  N         -8.4920  -13.3230  -14.3700 N.3   237  ALA237     -0.1231
    175  CA        -8.2250  -12.1530  -15.2010 C.3   237  ALA237      0.1694
    176  C         -9.4940  -11.4610  -15.6810 C.2   237  ALA237      0.2591
    177  O         -9.4980  -10.2500  -15.8960 O.2   237  ALA237     -0.2718
    178  CB        -7.3560  -12.5340  -16.3880 C.3   237  ALA237      0.0304
    179  N        -10.5420  -12.2430  -15.9240 N.am  238  ARG238     -0.1980
    180  CA       -11.8840  -11.6840  -16.0010 C.3   238  ARG238      0.1597
    181  C        -11.9610  -10.5500  -14.9870 C.2   238  ARG238      0.2287
    182  O        -12.0340   -9.3740  -15.3500 O.2   238  ARG238     -0.2864
    183  CB       -12.9190  -12.7440  -15.6350 C.3   238  ARG238      0.0334
    184  CG       -13.8600  -13.1400  -16.7530 C.3   238  ARG238      0.0492
    185  CD       -14.5000  -14.4890  -16.4390 C.3   238  ARG238      0.2205
    186  NE       -15.1890  -14.4760  -15.1490 N.pl3 238  ARG238     -0.0865
    187  CZ       -14.7210  -15.0290  -14.0320 C.cat 238  ARG238      0.5346
    188  NH1      -13.5720  -15.6910  -14.0470 N.pl3 238  ARG238      0.1354
    189  NH2      -15.4040  -14.9240  -12.8980 N.pl3 238  ARG238      0.1354
    190  N         -9.7230   -7.7710  -15.4620 N.3   241  LEU241     -0.1245
    191  CA       -10.1380   -6.9720  -16.6090 C.3   241  LEU241      0.1561
    192  C        -11.4830   -6.3230  -16.3280 C.2   241  LEU241      0.2260
    193  O        -11.6420   -5.1100  -16.4690 O.2   241  LEU241     -0.2867
    194  CB       -10.2320   -7.8400  -17.8630 C.3   241  LEU241      0.0270
    195  CG        -8.8960   -8.1310  -18.5460 C.3   241  LEU241      0.0019
    196  CD1       -9.0340   -9.3360  -19.4580 C.3   241  LEU241      0.0001
    197  CD2       -8.4420   -6.9130  -19.3340 C.3   241  LEU241      0.0001
@<TRIPOS>BOND
     1    32    34   ar
     2    32    30   ar
     3    35    34    1
     4    34    33   ar
     5    30    29   ar
     6    39    38    2
     7    38    37    1
     8    43    44    1
     9    37    36    1
    10    37    40    1
    11    44    47    1
    12    44    45    1
    13    47    48    1
    14    47    49    1
    15    33    31   ar
    16    29    31   ar
    17    29    28    1
    18    36    42    1
    19    25    28    1
    20    25    26    1
    21    25    24    1
    22    40    41    1
    23    26    27    2
    24    45    46    2
    25    45    50   am
    26   117   116    2
    27    42    41    1
    28    50    51    1
    29    56    55    1
    30    55    57    1
    31    55    54    1
    32   116   115    1
    33   110   109    2
    34    15    14    1
    35    51    54    1
    36    51    52    1
    37   162   160    1
    38   115   114    1
    39   115   118    1
    40   159   158    2
    41     1     2    1
    42    13    14    1
    43    13    10    1
    44    68    67    2
    45   109   114   am
    46   109   108    1
    47    53    52    2
    48    52    58   am
    49   172   171    1
    50    14    16    1
    51   169   170    1
    52   169   168    1
    53   166   165    2
    54   113   111    1
    55   171   170    2
    56   171   173    1
    57    12    11    2
    58   158   157    1
    59   158   163   am
    60     9    10    1
    61     9     3   am
    62    67    66    1
    63   160   161    1
    64   160   157    1
    65   101   100    2
    66    58    64    1
    67    58    59    1
    68    19    20    2
    69    19    18    1
    70    64    63    1
    71   164   165    1
    72   164   163    1
    73   164   167    1
    74    10    11    1
    75   108   111    1
    76   108   107    1
    77    11    17   am
    78   157   156    1
    79     2     3    1
    80     2     5    1
    81    63    62    1
    82   111   112    1
    83     3     4    2
    84    59    62    1
    85    59    60    1
    86   168   167    1
    87    17    18    1
    88    17    23    1
    89   100   107   am
    90   100    99    1
    91    18    21    1
    92    23    22    1
    93    66    69    1
    94    66    65    1
    95     6     5    1
    96     6     8    1
    97     6     7    1
    98    97    96    2
    99    69    70    1
   100    22    21    1
   101    60    61    2
   102    99    98    1
   103    99   102    1
   104    96    98   am
   105    96    95    1
   106   151   150    2
   107   119   120    1
   108    70    71    1
   109   102   103    1
   110    95    94    1
   111   150   149    1
   112    71    72    1
   113   127   125   ar
   114   196   195    1
   115   149   152    1
   116   149   148    1
   117   197   195    1
   118   154   152    1
   119   120   121    1
   120   120   123    1
   121   121   122    2
   122   153   152    1
   123   153   155    1
   124   103   104    1
   125   123   124    1
   126   147   146    1
   127   195   194    1
   128    94    89   am
   129   125   124    1
   130   125   126   ar
   131    72    73    2
   132    90    89    2
   133   104   105    1
   134   194   191    1
   135   106   105    1
   136    89    88    1
   137   146   144   ar
   138   146   145   ar
   139    73    74    1
   140    73    75    1
   141   144   142   ar
   142   184   185    1
   143   184   183    1
   144   191   192    1
   145   191   190    1
   146   193   192    2
   147   185   186    1
   148   178   175    1
   149   145   143   ar
   150    88    87    1
   151    88    91    1
   152    92    91    1
   153   180   179    1
   154   180   183    1
   155   180   181    1
   156   179   176   am
   157   177   176    2
   158    87    85   am
   159    91    93    1
   160   134   133    2
   161   142   141   ar
   162   176   175    1
   163   135   133   am
   164    85    86    2
   165    85    84    1
   166   182   181    2
   167   175   174    1
   168    84    83    1
   169   186   187    2
   170   133   132    1
   171   128   129    1
   172   143   141   ar
   173    83    78   am
   174   141   140    1
   175   129   132    1
   176   129   130    1
   177   188   187    1
   178   187   189    1
   179    78    77    1
   180    78    79    2
   181    77    80    1
   182    77    76    1
   183    82    80    1
   184   140   137    1
   185    80    81    1
   186   130   131    2
   187   137   136    1
   188   137   138    1
   189   138   139    2
