@<TRIPOS>MOLECULE
tmp/2v1xA00.pdb
 149 143 0 0 0
SMALL
GASTEIGER

@<TRIPOS>ATOM
      1  N         25.2190   -0.0700    7.9570 N.3    27  LEU27      -0.1231
      2  CA        24.4000    1.0750    7.6090 C.3    27  LEU27       0.1693
      3  C         25.3210    2.0660    7.0060 C.2    27  LEU27       0.2592
      4  O         26.4920    2.0950    7.3300 O.2    27  LEU27      -0.2718
      5  CB        23.7500    1.6820    8.8570 C.3    27  LEU27       0.0284
      6  CG        22.8150    0.7140    9.5770 C.3    27  LEU27       0.0019
      7  CD1       22.5040    1.2120   10.9860 C.3    27  LEU27       0.0001
      8  CD2       21.5620    0.5020    8.7390 C.3    27  LEU27       0.0001
      9  N         24.7830    2.9210    6.1530 N.am   28  GLU28      -0.1966
     10  CA        25.6070    3.7760    5.3590 C.3    28  GLU28       0.1733
     11  C         25.6800    5.1710    5.9020 C.2    28  GLU28       0.2616
     12  O         26.7490    5.7610    5.8910 O.2    28  GLU28      -0.2715
     13  CB        25.0440    3.8300    3.9510 C.3    28  GLU28       0.0429
     14  CG        25.9750    4.4620    2.9570 C.3    28  GLU28       0.1163
     15  CD        25.4300    4.3280    1.5700 C.2    28  GLU28       0.3649
     16  OE1       24.4020    4.9950    1.3030 O.co2  28  GLU28      -0.2457
     17  OE2       26.0010    3.5280    0.7890 O.co2  28  GLU28      -0.2457
     18  N         24.5310    5.7070    6.3220 N.am   29  LYS29      -0.1963
     19  CA        24.4600    7.0560    6.8710 C.3    29  LYS29       0.1728
     20  C         23.5400    7.0950    8.0880 C.2    29  LYS29       0.2616
     21  O         22.8470    6.1080    8.3840 O.2    29  LYS29      -0.2715
     22  CB        23.9880    8.0570    5.8080 C.3    29  LYS29       0.0311
     23  CG        22.6870    7.6780    5.1660 C.3    29  LYS29       0.0038
     24  CD        22.2300    8.6060    4.0530 C.3    29  LYS29       0.0206
     25  CE        21.0580    9.4730    4.3750 C.3    29  LYS29       0.1093
     26  NZ        20.1230    8.9850    5.4530 N.3    29  LYS29      -0.1314
     27  N         23.5910    8.2200    8.7970 N.am   30  PHE30      -0.1960
     28  CA        22.7840    8.4710    9.9940 C.3    30  PHE30       0.1771
     29  C         21.4750    9.1460    9.5900 C.2    30  PHE30       0.2619
     30  O         21.4650   10.0270    8.7250 O.2    30  PHE30      -0.2715
     31  CB        23.5190    9.4110   10.9550 C.3    30  PHE30       0.0574
     32  CG        24.6340    8.7620   11.7300 C.ar   30  PHE30      -0.0200
     33  CD1       25.9550    9.1050   11.4980 C.ar   30  PHE30      -0.0042
     34  CD2       24.3600    7.8080   12.6850 C.ar   30  PHE30      -0.0042
     35  CE1       26.9870    8.5140   12.2240 C.ar   30  PHE30      -0.0003
     36  CE2       25.3770    7.2080   13.4040 C.ar   30  PHE30      -0.0003
     37  CZ        26.6950    7.5690   13.1780 C.ar   30  PHE30      -0.0000
     38  N         20.3770    8.7290   10.2070 N.am   31  ARG31      -0.1977
     39  CA        19.0930    9.4110   10.0640 C.3    31  ARG31       0.1597
     40  C         19.0890   10.7060   10.8590 C.2    31  ARG31       0.2287
     41  O         19.9750   10.9320   11.6710 O.2    31  ARG31      -0.2864
     42  CB        17.9800    8.4940   10.5490 C.3    31  ARG31       0.0334
     43  CG        17.7820    7.3510    9.6310 C.3    31  ARG31       0.0492
     44  CD        16.8730    6.3400   10.1990 C.3    31  ARG31       0.2205
     45  NE        16.4220    5.4380    9.1640 N.pl3  31  ARG31      -0.0865
     46  CZ        15.7190    4.3260    9.3840 C.cat  31  ARG31       0.5346
     47  NH1       15.3750    3.9670   10.6070 N.pl3  31  ARG31       0.1354
     48  NH2       15.3580    3.5700    8.3600 N.pl3  31  ARG31       0.1354
     49  N         20.4650   11.1370   14.7530 N.3    34  GLN34      -0.1245
     50  CA        21.1830    9.9670   15.2580 C.3    34  GLN34       0.1566
     51  C         22.6450   10.2870   15.5830 C.2    34  GLN34       0.2260
     52  O         23.1870    9.8050   16.5780 O.2    34  GLN34      -0.2867
     53  CB        21.1360    8.8010   14.2860 C.3    34  GLN34       0.0367
     54  CG        19.8590    7.9840   14.2840 C.3    34  GLN34       0.0905
     55  CD        20.0240    6.7710   13.4220 C.2    34  GLN34       0.2608
     56  OE1       20.7470    6.8270   12.4320 O.2    34  GLN34      -0.2717
     57  NE2       19.4280    5.6490   13.8100 N.am   34  GLN34      -0.0878
     58  N         10.1220    9.1630   16.4220 N.3    52  PRO52      -0.2102
     59  CA         9.0640    8.2200   16.0590 C.3    52  PRO52       0.1504
     60  C          9.4680    6.7500   16.1750 C.2    52  PRO52       0.2576
     61  O         10.6180    6.4190   16.0780 O.2    52  PRO52      -0.2718
     62  CB         8.7500    8.5960   14.6250 C.3    52  PRO52       0.0282
     63  CG         9.0900   10.0590   14.5480 C.3    52  PRO52       0.0208
     64  CD        10.2160   10.2890   15.4520 C.3    52  PRO52       0.0893
     65  N          8.5130    5.8790   16.4080 N.am   53  THR53      -0.1939
     66  CA         8.8090    4.4320   16.4800 C.3    53  THR53       0.2028
     67  C          9.2680    3.9360   15.1120 C.2    53  THR53       0.2643
     68  O          8.7240    4.3370   14.0990 O.2    53  THR53      -0.2714
     69  CB         7.5760    3.6500   16.9180 C.3    53  THR53       0.1808
     70  OG1        7.1790    4.0970   18.2090 O.3    53  THR53      -0.2208
     71  CG2        7.8670    2.1490   16.9930 C.3    53  THR53       0.0379
     72  N         10.2580    3.0410   15.0960 N.am   54  GLY54      -0.1939
     73  CA        10.9270    2.6020   13.8600 C.3    54  GLY54       0.2014
     74  C         11.9300    3.5810   13.2430 C.2    54  GLY54       0.2639
     75  O         12.4810    3.3110   12.1790 O.2    54  GLY54      -0.2714
     76  N         12.1680    4.7110   13.8820 N.am   55  GLY55      -0.1939
     77  CA        13.0930    5.7070   13.3630 C.3    55  GLY55       0.2014
     78  C         14.5910    5.4140   13.5980 C.2    55  GLY55       0.2639
     79  O         15.4150    6.0340   12.9600 O.2    55  GLY55      -0.2714
     80  N         14.9290    4.4710   14.4820 N.am   56  GLY56      -0.1939
     81  CA        16.3210    4.1360   14.8270 C.3    56  GLY56       0.2014
     82  C         16.8370    4.7190   16.1520 C.2    56  GLY56       0.2639
     83  O         17.9300    5.2980   16.2030 O.2    56  GLY56      -0.2714
     84  N         16.0640    4.6030   17.2310 N.am   57  LYS57      -0.1963
     85  CA        16.5460    5.0890   18.5370 C.3    57  LYS57       0.1728
     86  C         17.6420    4.2000   19.0780 C.2    57  LYS57       0.2617
     87  O         18.5730    4.6720   19.6990 O.2    57  LYS57      -0.2715
     88  CB        15.4130    5.2280   19.5650 C.3    57  LYS57       0.0311
     89  CG        14.4820    6.3570   19.1930 C.3    57  LYS57       0.0038
     90  CD        13.3820    6.6080   20.2100 C.3    57  LYS57       0.0206
     91  CE        12.2250    5.6420   20.1370 C.3    57  LYS57       0.1093
     92  NZ        11.4110    5.7390   18.9200 N.3    57  LYS57      -0.1314
     93  N         17.5240    2.9030   18.8290 N.am   58  SER58      -0.1936
     94  CA        18.3970    1.9620   19.4480 C.3    58  SER58       0.2055
     95  C         19.8380    2.1700   19.0680 C.2    58  SER58       0.2642
     96  O         20.7330    2.0440   19.9050 O.2    58  SER58      -0.2714
     97  CB        17.9710    0.5680   19.0600 C.3    58  SER58       0.2130
     98  OG        16.6050    0.4450   19.3520 O.3    58  SER58      -0.2179
     99  N         20.0650    2.4700   17.8010 N.am   59  LEU59      -0.1977
    100  CA        21.4010    2.7120   17.3060 C.3    59  LEU59       0.1596
    101  C         22.1160    3.6600   18.2230 C.2    59  LEU59       0.2287
    102  O         23.3010    3.4990   18.5130 O.2    59  LEU59      -0.2864
    103  CB        21.3750    3.2680   15.8670 C.3    59  LEU59       0.0297
    104  CG        22.7320    3.2840   15.1510 C.3    59  LEU59       0.0022
    105  CD1       23.3110    1.8920   14.9960 C.3    59  LEU59       0.0001
    106  CD2       22.6040    3.9020   13.8370 C.3    59  LEU59       0.0001
    107  N         15.8760   -6.8610   20.1030 N.3    85  GLN85      -0.1245
    108  CA        17.1860   -6.2250   19.9900 C.3    85  GLN85       0.1566
    109  C         18.3170   -7.2300   19.9030 C.2    85  GLN85       0.2260
    110  O         19.2140   -7.0890   19.0800 O.2    85  GLN85      -0.2867
    111  CB        17.4350   -5.3390   21.2030 C.3    85  GLN85       0.0367
    112  CG        16.4330   -4.2200   21.3740 C.3    85  GLN85       0.0905
    113  CD        16.8330   -3.0020   20.6490 C.2    85  GLN85       0.2608
    114  OE1       17.0990   -1.9710   21.2610 O.2    85  GLN85      -0.2717
    115  NE2       16.9200   -3.1000   19.3250 N.am   85  GLN85      -0.0878
    116  N         18.9370   -9.0690   16.5570 N.3    88  VAL88      -0.1245
    117  CA        19.6080   -8.1710   15.6210 C.3    88  VAL88       0.1561
    118  C         21.1020   -8.0200   15.8890 C.2    88  VAL88       0.2260
    119  O         21.8860   -7.9440   14.9440 O.2    88  VAL88      -0.2867
    120  CB        18.9520   -6.7650   15.6580 C.3    88  VAL88       0.0252
    121  CG1       19.8280   -5.7210   14.9630 C.3    88  VAL88       0.0019
    122  CG2       17.5760   -6.8210   15.0360 C.3    88  VAL88       0.0019
    123  N         15.3580    2.4700   27.9120 N.3   157  ASP157     -0.1239
    124  CA        14.4100    2.4900   26.8020 C.3   157  ASP157      0.1674
    125  C         13.0150    2.8210   27.3460 C.2   157  ASP157      0.2266
    126  O         12.6990    2.4830   28.4830 O.2   157  ASP157     -0.2867
    127  CB        14.4030    1.1840   26.0080 C.3   157  ASP157      0.1410
    128  CG        14.3690    1.4190   24.4940 C.2   157  ASP157      0.3668
    129  OD1       13.9310    2.5100   24.0300 O.co2 157  ASP157     -0.2456
    130  OD2       14.8120    0.5070   23.7750 O.co2 157  ASP157     -0.2456
    131  N         10.0090   -3.7820   11.0980 N.3   317  ASP317     -0.1239
    132  CA        10.9650   -2.8340   10.5080 C.3   317  ASP317      0.1674
    133  C         11.2300   -3.0570    9.0060 C.2   317  ASP317      0.2266
    134  O         12.2030   -2.4980    8.4610 O.2   317  ASP317     -0.2867
    135  CB        12.2850   -2.8380   11.3030 C.3   317  ASP317      0.1410
    136  CG        13.0000   -4.1830   11.2650 C.2   317  ASP317      0.3668
    137  OD1       14.2440   -4.1980   11.3860 O.co2 317  ASP317     -0.2456
    138  OD2       12.3290   -5.2250   11.1260 O.co2 317  ASP317     -0.2456
    139  N          9.8050    2.8700    4.9490 N.3   345  ARG345     -0.1245
    140  CA        10.9500    3.0340    5.8610 C.3   345  ARG345      0.1563
    141  C         12.2830    2.9910    5.0980 C.2   345  ARG345      0.2260
    142  O         13.3420    3.1180    5.7140 O.2   345  ARG345     -0.2867
    143  CB        10.9350    1.9610    6.9730 C.3   345  ARG345      0.0307
    144  CG        10.2820    2.4360    8.2520 C.3   345  ARG345      0.0489
    145  CD        10.9370    3.7640    8.7230 C.3   345  ARG345      0.2205
    146  NE        10.3260    4.3040    9.9240 N.pl3 345  ARG345     -0.0865
    147  CZ        10.5440    5.5290   10.3800 C.cat 345  ARG345      0.5346
    148  NH1        9.9240    5.9430   11.4800 N.pl3 345  ARG345      0.1354
    149  NH2       11.4010    6.3250    9.7740 N.pl3 345  ARG345      0.1354
@<TRIPOS>BOND
     1    17    15   ar
     2    16    15   ar
     3    15    14    1
     4    14    13    1
     5    13    10    1
     6    24    25    1
     7    24    23    1
     8    25    26    1
     9   139   140    1
    10   141   142    2
    11   141   140    1
    12    23    22    1
    13    10    11    1
    14    10     9    1
    15    22    19    1
    16   140   143    1
    17    12    11    2
    18    11    18   am
    19     9     3   am
    20    18    19    1
    21    19    20    1
    22   143   144    1
    23     3     4    2
    24     3     2    1
    25     2     1    1
    26     2     5    1
    27    20    21    2
    28    20    27   am
    29   144   145    1
    30    48    46    1
    31   134   133    2
    32   145   146    1
    33    30    29    2
    34     8     6    1
    35    27    28    1
    36     5     6    1
    37   133   132    1
    38    45    46    2
    39    45    44    1
    40    46    47    1
    41     6     7    1
    42    29    28    1
    43    29    38   am
    44    43    44    1
    45    43    42    1
    46   149   147    1
    47   146   147    2
    48    28    31    1
    49    39    38    1
    50    39    42    1
    51    39    40    1
    52   147   148    1
    53   132   131    1
    54   132   135    1
    55    40    41    2
    56    31    32    1
    57   138   136   ar
    58   136   135    1
    59   136   137   ar
    60    33    32   ar
    61    33    35   ar
    62    32    34   ar
    63    75    74    2
    64    35    37   ar
    65    56    55    2
    66    34    36   ar
    67    79    78    2
    68    37    36   ar
    69    74    73    1
    70    74    76   am
    71    77    78    1
    72    77    76    1
    73    55    57   am
    74    55    54    1
    75    78    80   am
    76   106   104    1
    77    73    72    1
    78    68    67    2
    79    54    53    1
    80    53    50    1
    81    80    81    1
    82    63    62    1
    83    63    64    1
    84    62    59    1
    85    49    50    1
    86    81    82    1
    87   119   118    2
    88   121   120    1
    89   105   104    1
    90   122   120    1
    91    72    67   am
    92    67    66    1
    93   104   103    1
    94    50    51    1
    95    64    58    1
    96    51    52    2
    97   117   120    1
    98   117   118    1
    99   117   116    1
   100   103   100    1
   101    59    60    1
   102    59    58    1
   103    61    60    2
   104    82    83    2
   105    82    84   am
   106    60    65   am
   107    65    66    1
   108    66    69    1
   109    69    71    1
   110    69    70    1
   111    84    85    1
   112   100    99    1
   113   100   101    1
   114    99    95   am
   115   101   102    2
   116    85    86    1
   117    85    88    1
   118    93    86   am
   119    93    94    1
   120    92    91    1
   121    97    98    1
   122    97    94    1
   123    95    94    1
   124    95    96    2
   125    86    87    2
   126   110   109    2
   127    89    88    1
   128    89    90    1
   129   115   113   am
   130   109   108    1
   131   108   107    1
   132   108   111    1
   133    91    90    1
   134   113   114    2
   135   113   112    1
   136   111   112    1
   137   130   128   ar
   138   129   128   ar
   139   128   127    1
   140   127   124    1
   141   124   125    1
   142   124   123    1
   143   125   126    2
