@<TRIPOS>MOLECULE
tmp/2v22D00.pdb
 138 133 0 0 0
SMALL
GASTEIGER

@<TRIPOS>ATOM
      1  N         10.5080   77.6470   11.9440 N.3    36  MET36      -0.1245
      2  CA        10.6950   76.8360   13.1540 C.3    36  MET36       0.1570
      3  C         12.1660   76.5900   13.4790 C.2    36  MET36       0.2261
      4  O         12.5730   76.6020   14.6540 O.2    36  MET36      -0.2867
      5  CB         9.9490   75.5080   13.0490 C.3    36  MET36       0.0387
      6  CG         8.4440   75.6700   12.9520 C.3    36  MET36       0.0595
      7  SD         7.7410   74.0260   12.8970 S.3    36  MET36      -0.1393
      8  CE         6.1380   74.2870   12.1150 C.3    36  MET36       0.0692
      9  N         13.4800   79.6330   15.1230 N.3    39  ILE39      -0.1231
     10  CA        13.0990   79.8350   16.5100 C.3    39  ILE39       0.1692
     11  C         14.0410   78.9520   17.3180 C.2    39  ILE39       0.2591
     12  O         14.6040   79.3770   18.3390 O.2    39  ILE39      -0.2718
     13  CB        11.6150   79.4460   16.7300 C.3    39  ILE39       0.0266
     14  CG1       10.6840   80.5130   16.1590 C.3    39  ILE39       0.0019
     15  CG2       11.2600   79.3180   18.1830 C.3    39  ILE39       0.0020
     16  CD1        9.2350   80.1600   16.2980 C.3    39  ILE39       0.0001
     17  N         14.2600   77.7320   16.8220 N.am   40  LEU40      -0.1980
     18  CA        15.1090   76.7570   17.5290 C.3    40  LEU40       0.1596
     19  C         16.5470   77.2510   17.6870 C.2    40  LEU40       0.2287
     20  O         17.1200   77.2010   18.7850 O.2    40  LEU40      -0.2864
     21  CB        15.0650   75.3600   16.8930 C.3    40  LEU40       0.0297
     22  CG        16.0670   74.3730   17.4830 C.3    40  LEU40       0.0022
     23  CD1       15.7610   73.9850   18.9400 C.3    40  LEU40       0.0001
     24  CD2       16.2300   73.1550   16.6220 C.3    40  LEU40       0.0001
     25  N         16.8250   80.1290   20.2190 N.3    43  TRP43      -0.1241
     26  CA        16.7570   79.5370   21.5550 C.3    43  TRP43       0.1605
     27  C         18.1140   78.9750   22.0070 C.2    43  TRP43       0.2264
     28  O         18.4630   78.9980   23.2010 O.2    43  TRP43      -0.2867
     29  CB        15.6670   78.4420   21.5820 C.3    43  TRP43       0.0550
     30  CG        15.4960   77.8080   22.9230 C.ar   43  TRP43       0.0003
     31  CD1       15.0070   78.4120   24.0460 C.ar   43  TRP43       0.0946
     32  CD2       15.9470   76.5000   23.3370 C.ar   43  TRP43       0.0152
     33  NE1       15.1060   77.5540   25.1360 N.ar   43  TRP43      -0.2442
     34  CE2       15.6840   76.3800   24.7230 C.ar   43  TRP43       0.0810
     35  CE3       16.5420   75.4270   22.6740 C.ar   43  TRP43       0.0012
     36  CZ2       15.9710   75.2230   25.4410 C.ar   43  TRP43       0.0191
     37  CZ3       16.7780   74.2570   23.3710 C.ar   43  TRP43       0.0001
     38  CH2       16.5070   74.1710   24.7490 C.ar   43  TRP43       0.0015
     39  N         20.4420   81.6920   23.3150 N.3    46  GLU46      -0.1245
     40  CA        20.1290   81.9170   24.7300 C.3    46  GLU46       0.1567
     41  C         20.7630   80.8480   25.6050 C.2    46  GLU46       0.2260
     42  O         21.3750   81.1460   26.6210 O.2    46  GLU46      -0.2867
     43  CB        18.6120   81.9210   24.9710 C.3    46  GLU46       0.0388
     44  CG        17.8480   83.2040   24.6110 C.3    46  GLU46       0.1160
     45  CD        18.2280   84.3930   25.4930 C.2    46  GLU46       0.3649
     46  OE1       18.4520   84.1930   26.7090 O.co2  46  GLU46      -0.2457
     47  OE2       18.3280   85.5310   24.9780 O.co2  46  GLU46      -0.2457
     48  N         23.3750   81.2360   28.7260 N.3    50  GLU50      -0.1245
     49  CA        23.1110   80.9250   30.1230 C.3    50  GLU50       0.1567
     50  C         24.1090   79.9830   30.7790 C.2    50  GLU50       0.2260
     51  O         24.4780   80.1410   31.9470 O.2    50  GLU50      -0.2867
     52  CB        21.7020   80.4060   30.3680 C.3    50  GLU50       0.0388
     53  CG        21.1120   81.1490   31.5680 C.3    50  GLU50       0.1160
     54  CD        20.4100   80.2130   32.5450 C.2    50  GLU50       0.3649
     55  OE1       20.0250   79.0830   32.1330 O.co2  50  GLU50      -0.2457
     56  OE2       20.2180   80.6230   33.7180 O.co2  50  GLU50      -0.2457
     57  N          6.9930   68.6360   14.7070 N.3    76  ARG76      -0.1231
     58  CA         7.3260   69.9210   15.3170 C.3    76  ARG76       0.1694
     59  C          7.5250   69.7880   16.8380 C.2    76  ARG76       0.2592
     60  O          8.3510   70.4850   17.4280 O.2    76  ARG76      -0.2718
     61  CB         6.2460   70.9620   14.9640 C.3    76  ARG76       0.0321
     62  CG         4.8860   70.6880   15.5970 C.3    76  ARG76       0.0489
     63  CD         3.7580   71.5640   15.0650 C.3    76  ARG76       0.2205
     64  NE         3.5300   71.3560   13.6440 N.pl3  76  ARG76      -0.0865
     65  CZ         2.9810   72.2590   12.8370 C.cat  76  ARG76       0.5346
     66  NH1        2.5620   73.4250   13.3190 N.pl3  76  ARG76       0.1354
     67  NH2        2.8580   71.9990   11.5420 N.pl3  76  ARG76       0.1354
     68  N          6.7780   68.8840   17.4640 N.am   77  GLY77      -0.1957
     69  CA         6.9180   68.6690   18.8790 C.3    77  GLY77       0.1869
     70  C          8.1830   67.9200   19.2480 C.2    77  GLY77       0.2309
     71  O          8.5270   67.8930   20.4470 O.2    77  GLY77      -0.2863
     72  N         11.2240   68.6770   17.5220 N.3    79  LEU79      -0.1231
     73  CA        12.3280   69.4420   16.9730 C.3    79  LEU79       0.1693
     74  C         13.2230   70.0250   18.0850 C.2    79  LEU79       0.2591
     75  O         14.4310   70.1910   17.8980 O.2    79  LEU79      -0.2718
     76  CB        11.7580   70.5400   16.0800 C.3    79  LEU79       0.0284
     77  CG        12.7050   71.5920   15.5350 C.3    79  LEU79       0.0019
     78  CD1       13.7070   70.9680   14.5650 C.3    79  LEU79       0.0001
     79  CD2       11.8350   72.6130   14.8380 C.3    79  LEU79       0.0001
     80  N         12.6460   70.3270   19.2480 N.am   80  GLN80      -0.1979
     81  CA        13.4100   70.9570   20.3140 C.3    80  GLN80       0.1601
     82  C         14.2620   69.8850   20.9600 C.2    80  GLN80       0.2287
     83  O         15.3300   70.1610   21.5090 O.2    80  GLN80      -0.2864
     84  CB        12.4920   71.5800   21.3520 C.3    80  GLN80       0.0394
     85  CG        13.1890   71.8690   22.6660 C.3    80  GLN80       0.0908
     86  CD        12.6120   73.0750   23.3800 C.2    80  GLN80       0.2608
     87  OE1       11.3980   73.2500   23.4450 O.2    80  GLN80      -0.2717
     88  NE2       13.4880   73.9120   23.9280 N.am   80  GLN80      -0.0878
     89  N         16.3060   70.4290   32.3410 N.3   106  TYR106     -0.1227
     90  CA        15.8180   71.5710   33.0830 C.3   106  TYR106      0.1736
     91  C         15.6760   72.8150   32.2110 C.2   106  TYR106      0.2595
     92  O         14.6960   73.5480   32.3090 O.2   106  TYR106     -0.2718
     93  CB        16.7290   71.8600   34.2820 C.3   106  TYR106      0.0548
     94  CG        16.4400   73.1960   34.9530 C.ar  106  TYR106     -0.0200
     95  CD1       15.5350   73.2830   36.0060 C.ar  106  TYR106     -0.0009
     96  CD2       17.0280   74.3760   34.5010 C.ar  106  TYR106     -0.0009
     97  CE1       15.2390   74.4920   36.6050 C.ar  106  TYR106      0.0417
     98  CE2       16.7450   75.5940   35.0970 C.ar  106  TYR106      0.0417
     99  CZ        15.8460   75.6390   36.1470 C.ar  106  TYR106      0.1957
    100  OH        15.5280   76.8340   36.7400 O.3   106  TYR106     -0.2866
    101  N         16.6290   73.0650   31.3250 N.am  107  ILE107     -0.1966
    102  CA        16.5500   74.2740   30.5020 C.3   107  ILE107      0.1727
    103  C         15.4470   74.2650   29.4290 C.2   107  ILE107      0.2617
    104  O         15.1090   75.3020   28.8520 O.2   107  ILE107     -0.2715
    105  CB        17.9420   74.7270   29.9680 C.3   107  ILE107      0.0290
    106  CG1       18.0770   76.2510   30.0870 C.3   107  ILE107      0.0022
    107  CG2       18.1760   74.2570   28.5290 C.3   107  ILE107      0.0023
    108  CD1       18.8510   76.8740   28.9350 C.3   107  ILE107      0.0001
    109  N         14.8390   73.1060   29.1960 N.am  108  THR108     -0.1937
    110  CA        13.6590   73.0580   28.3370 C.3   108  THR108      0.2028
    111  C         12.3610   73.1990   29.1360 C.2   108  THR108      0.2642
    112  O         11.2650   73.2490   28.5600 O.2   108  THR108     -0.2714
    113  CB        13.5850   71.7290   27.5840 C.3   108  THR108      0.1808
    114  OG1       13.4230   70.6840   28.5470 O.3   108  THR108     -0.2208
    115  CG2       14.8560   71.4800   26.7780 C.3   108  THR108      0.0379
    116  N         12.4670   73.2450   30.4630 N.am  109  ASP109     -0.1957
    117  CA        11.2680   73.3740   31.2880 C.3   109  ASP109      0.1840
    118  C         10.6320   71.9890   31.3620 C.2   109  ASP109      0.2622
    119  O          9.4310   71.8190   31.1400 O.2   109  ASP109     -0.2715
    120  CB        10.2960   74.3600   30.6300 C.3   109  ASP109      0.1450
    121  CG         9.2720   74.9250   31.6110 C.2   109  ASP109      0.3671
    122  OD1        9.2270   74.4640   32.7700 O.co2 109  ASP109     -0.2456
    123  OD2        8.4860   75.8170   31.2200 O.co2 109  ASP109     -0.2456
    124  N         11.4670   70.9780   31.5600 N.am  110  ASP110     -0.1957
    125  CA        10.9420   69.6400   31.6960 C.3   110  ASP110      0.1840
    126  C         10.0110   69.1900   30.5620 C.2   110  ASP110      0.2622
    127  O          9.1880   68.2940   30.7780 O.2   110  ASP110     -0.2715
    128  CB        10.2340   69.5280   33.0430 C.3   110  ASP110      0.1450
    129  CG        11.1250   68.9240   34.1140 C.2   110  ASP110      0.3671
    130  OD1       12.2660   69.4120   34.3040 O.co2 110  ASP110     -0.2456
    131  OD2       10.6860   67.9410   34.7560 O.co2 110  ASP110     -0.2456
    132  N         10.1950   69.7370   29.3550 N.am  111  THR111     -0.1951
    133  CA         9.5290   69.2540   28.1280 C.3   111  THR111      0.1897
    134  C          9.7970   67.7940   27.7320 C.2   111  THR111      0.2313
    135  O          8.9090   67.0940   27.2610 O.2   111  THR111     -0.2863
    136  CB         9.9000   70.1060   26.9080 C.3   111  THR111      0.1794
    137  OG1        9.8370   71.4980   27.2430 O.3   111  THR111     -0.2208
    138  CG2        8.9510   69.8050   25.7500 C.3   111  THR111      0.0378
@<TRIPOS>BOND
     1    67    65    1
     2     1     2    1
     3     8     7    1
     4    65    66    1
     5    65    64    2
     6     7     6    1
     7     6     5    1
     8     5     2    1
     9     2     3    1
    10     3     4    2
    11    64    63    1
    12    78    77    1
    13    57    58    1
    14    79    77    1
    15    61    58    1
    16    61    62    1
    17    63    62    1
    18     9    10    1
    19    58    59    1
    20    77    76    1
    21    76    73    1
    22    14    16    1
    23    14    13    1
    24    10    13    1
    25    10    11    1
    26    24    22    1
    27    13    15    1
    28    17    11   am
    29    17    18    1
    30    59    60    2
    31    59    68   am
    32    21    22    1
    33    21    18    1
    34    73    72    1
    35    73    74    1
    36    11    12    2
    37    68    69    1
    38    22    23    1
    39    18    19    1
    40    19    20    2
    41    75    74    2
    42    74    80   am
    43    69    70    1
    44    70    71    2
    45    80    81    1
    46    25    26    1
    47    81    82    1
    48    81    84    1
    49    82    83    2
    50    84    85    1
    51    26    29    1
    52    26    27    1
    53    29    30    1
    54    27    28    2
    55    85    86    1
    56    35    32   ar
    57    35    37   ar
    58    30    32   ar
    59    30    31   ar
    60    39    40    1
    61    32    34   ar
    62    37    38   ar
    63    86    87    2
    64    86    88   am
    65    31    33   ar
    66    44    43    1
    67    44    45    1
    68    34    33   ar
    69    34    36   ar
    70    40    43    1
    71    40    41    1
    72    38    36   ar
    73    47    45   ar
    74    45    46   ar
    75    41    42    2
    76   138   136    1
    77   115   113    1
    78   136   137    1
    79   136   133    1
    80   135   134    2
    81   113   110    1
    82   113   114    1
    83   134   133    1
    84   133   132    1
    85   110   111    1
    86   110   109    1
    87   107   105    1
    88   112   111    2
    89    48    49    1
    90   104   103    2
    91   108   106    1
    92   111   116   am
    93   109   103   am
    94   132   126   am
    95   103   102    1
    96   105   106    1
    97   105   102    1
    98    49    52    1
    99    49    50    1
   100    52    53    1
   101   116   117    1
   102   102   101    1
   103   126   127    2
   104   126   125    1
   105   120   117    1
   106   120   121    1
   107    50    51    2
   108   119   118    2
   109   123   121   ar
   110   117   118    1
   111   101    91   am
   112   118   124   am
   113   124   125    1
   114    53    54    1
   115   121   122   ar
   116   125   128    1
   117    55    54   ar
   118    91    92    2
   119    91    90    1
   120    89    90    1
   121    54    56   ar
   122   128   129    1
   123    90    93    1
   124   129   130   ar
   125   129   131   ar
   126    93    94    1
   127    96    94   ar
   128    96    98   ar
   129    94    95   ar
   130    98    99   ar
   131    95    97   ar
   132    99    97   ar
   133    99   100    1
