@<TRIPOS>MOLECULE
tmp/2v25A00.pdb
 104 95 0 0 0
SMALL
GASTEIGER

@<TRIPOS>ATOM
      1  N          5.0270   37.2350   50.8340 N.3    17  LYS17      -0.1245
      2  CA         6.4620   37.2150   50.5610 C.3    17  LYS17       0.1561
      3  C          6.6970   37.0860   49.0580 C.2    17  LYS17       0.2260
      4  O          5.7780   36.8100   48.2760 O.2    17  LYS17      -0.2867
      5  CB         7.1250   36.0470   51.2830 C.3    17  LYS17       0.0271
      6  CG         6.9470   36.0480   52.7930 C.3    17  LYS17       0.0035
      7  CD         7.6400   37.2140   53.4170 C.3    17  LYS17       0.0206
      8  CE         7.7700   37.0730   54.9170 C.3    17  LYS17       0.1093
      9  NZ         8.6920   35.9580   55.3200 N.3    17  LYS17      -0.1314
     10  N          9.3570   40.6900   56.8810 N.3    62  ALA62      -0.1245
     11  CA         9.0340   40.6840   58.2960 C.3    62  ALA62       0.1562
     12  C          8.9780   42.1140   58.8560 C.2    62  ALA62       0.2260
     13  O          8.2070   42.4080   59.7620 O.2    62  ALA62      -0.2867
     14  CB        10.0410   39.8020   59.0930 C.3    62  ALA62       0.0290
     15  N          5.6780   44.2210   56.7420 N.3    65  ARG65      -0.1245
     16  CA         4.3120   43.7230   56.7060 C.3    65  ARG65       0.1563
     17  C          3.4400   44.3700   57.7740 C.2    65  ARG65       0.2260
     18  O          2.2830   44.7040   57.5020 O.2    65  ARG65      -0.2867
     19  CB         4.2740   42.2040   56.8090 C.3    65  ARG65       0.0307
     20  CG         4.8010   41.6220   58.0840 C.3    65  ARG65       0.0489
     21  CD         5.0130   40.1190   57.9680 C.3    65  ARG65       0.2205
     22  NE         5.6550   39.6440   59.1840 N.pl3  65  ARG65      -0.0865
     23  CZ         6.2060   38.4470   59.3390 C.cat  65  ARG65       0.5346
     24  NH1        6.1570   37.5360   58.3810 N.pl3  65  ARG65       0.1354
     25  NH2        6.8130   38.1620   60.4760 N.pl3  65  ARG65       0.1354
     26  N          4.1040   33.9360   55.7840 N.3    80  THR80      -0.1218
     27  CA         4.8020   33.1880   56.8220 C.3    80  THR80       0.1862
     28  C          4.7990   33.8990   58.1860 C.2    80  THR80       0.2287
     29  O          5.8000   33.9680   58.8830 O.2    80  THR80      -0.2866
     30  CB         6.2480   32.8050   56.3650 C.3    80  THR80       0.1770
     31  OG1        7.0490   33.9730   56.2610 O.3    80  THR80      -0.2211
     32  CG2        6.2440   32.0860   54.9870 C.3    80  THR80       0.0375
     33  N          4.3490   34.1890   61.7700 N.3    82  THR82      -0.1218
     34  CA         4.2700   33.2850   62.9020 C.3    82  THR82       0.1862
     35  C          3.3620   33.8260   63.9850 C.2    82  THR82       0.2287
     36  O          3.4960   34.9670   64.4060 O.2    82  THR82      -0.2866
     37  CB         5.6570   33.0060   63.4870 C.3    82  THR82       0.1770
     38  OG1        6.4550   32.3990   62.4680 O.3    82  THR82      -0.2211
     39  CG2        5.5780   32.0680   64.6740 C.3    82  THR82       0.0375
     40  N          2.3770   38.8260   69.5210 N.3    87  ARG87      -0.1245
     41  CA         1.8660   39.3870   68.2840 C.3    87  ARG87       0.1563
     42  C          0.3470   39.4120   68.2640 C.2    87  ARG87       0.2260
     43  O         -0.2490   40.2920   67.6400 O.2    87  ARG87      -0.2867
     44  CB         2.3890   38.6030   67.0950 C.3    87  ARG87       0.0307
     45  CG         3.8240   38.9060   66.7850 C.3    87  ARG87       0.0489
     46  CD         4.3520   37.9360   65.7530 C.3    87  ARG87       0.2205
     47  NE         5.6820   38.3070   65.2860 N.pl3  87  ARG87      -0.0865
     48  CZ         6.3310   37.6870   64.3130 C.cat  87  ARG87       0.5346
     49  NH1        5.7970   36.6300   63.7450 N.pl3  87  ARG87       0.1354
     50  NH2        7.5400   38.1130   63.9400 N.pl3  87  ARG87       0.1354
     51  N         11.7140   39.5020   63.1130 N.3   129  ALA129     -0.1231
     52  CA        11.4150   38.0590   63.0590 C.3   129  ALA129      0.1694
     53  C         11.4610   37.4050   64.4450 C.2   129  ALA129      0.2593
     54  O         12.0790   37.9180   65.3640 O.2   129  ALA129     -0.2718
     55  CB        12.3780   37.3520   62.1280 C.3   129  ALA129      0.0304
     56  N         10.8230   36.2440   64.5690 N.am  130  THR130     -0.1939
     57  CA        10.8260   35.4530   65.8030 C.3   130  THR130      0.2028
     58  C         12.1530   34.7420   66.1100 C.2   130  THR130      0.2642
     59  O         12.3340   34.1230   67.1630 O.2   130  THR130     -0.2714
     60  CB         9.7550   34.3610   65.7230 C.3   130  THR130      0.1808
     61  OG1       10.0040   33.5500   64.5630 O.3   130  THR130     -0.2208
     62  CG2        8.3780   34.9770   65.6390 C.3   130  THR130      0.0379
     63  N         13.0990   34.8300   65.1970 N.am  131  THR131     -0.1950
     64  CA        14.1920   33.9020   65.1850 C.3   131  THR131      0.1897
     65  C         15.1580   34.0470   66.3440 C.2   131  THR131      0.2313
     66  O         15.5770   33.0460   66.9450 O.2   131  THR131     -0.2863
     67  CB        14.9780   34.0190   63.8730 C.3   131  THR131      0.1794
     68  OG1       14.0700   34.1950   62.7730 O.3   131  THR131     -0.2208
     69  CG2       15.7980   32.7660   63.6650 C.3   131  THR131      0.0378
     70  N         16.1690   39.5370   54.1630 N.3   154  TYR154     -0.1241
     71  CA        16.8540   38.2610   54.0230 C.3   154  TYR154      0.1605
     72  C         18.0230   38.2870   53.0400 C.2   154  TYR154      0.2264
     73  O         19.0460   37.6860   53.3230 O.2   154  TYR154     -0.2867
     74  CB        15.8600   37.1170   53.7320 C.3   154  TYR154      0.0534
     75  CG        14.9760   36.8730   54.9300 C.ar  154  TYR154     -0.0201
     76  CD1       15.5360   36.6110   56.1780 C.ar  154  TYR154     -0.0009
     77  CD2       13.5990   36.9650   54.8470 C.ar  154  TYR154     -0.0009
     78  CE1       14.7530   36.4430   57.2950 C.ar  154  TYR154      0.0417
     79  CE2       12.8080   36.8040   55.9780 C.ar  154  TYR154      0.0417
     80  CZ        13.3950   36.5370   57.1900 C.ar  154  TYR154      0.1957
     81  OH        12.5800   36.3810   58.3020 O.3   154  TYR154     -0.2866
     82  N         16.5100   31.2820   60.1440 N.3   171  VAL171     -0.1231
     83  CA        15.0870   31.6160   60.0180 C.3   171  VAL171      0.1692
     84  C         14.3340   30.3290   59.6910 C.2   171  VAL171      0.2592
     85  O         14.9170   29.2540   59.5990 O.2   171  VAL171     -0.2718
     86  CB        14.8360   32.7230   58.9500 C.3   171  VAL171      0.0266
     87  CG1       15.0990   32.2260   57.5470 C.3   171  VAL171      0.0020
     88  CG2       13.4440   33.3110   59.0940 C.3   171  VAL171      0.0020
     89  N         13.0180   30.4230   59.5410 N.am  172  ASP172     -0.1974
     90  CA        12.2040   29.2880   59.1300 C.3   172  ASP172      0.1709
     91  C         12.8430   28.5510   57.9560 C.2   172  ASP172      0.2293
     92  O         13.2980   29.1760   56.9910 O.2   172  ASP172     -0.2864
     93  CB        10.8180   29.7380   58.6530 C.3   172  ASP172      0.1436
     94  CG        10.1130   30.7240   59.5950 C.2   172  ASP172      0.3671
     95  OD1       10.7730   31.4040   60.4080 O.co2 172  ASP172     -0.2456
     96  OD2        8.8620   30.8420   59.4690 O.co2 172  ASP172     -0.2456
     97  N         11.9030   29.5180   54.4040 N.3   175  ILE175     -0.1245
     98  CA        12.5530   30.6910   53.8700 C.3   175  ILE175      0.1561
     99  C         14.0020   30.3680   53.5150 C.2   175  ILE175      0.2260
    100  O         14.5100   30.7990   52.4770 O.2   175  ILE175     -0.2867
    101  CB        12.4650   31.8630   54.8810 C.3   175  ILE175      0.0252
    102  CG1       10.9950   32.2390   55.1210 C.3   175  ILE175      0.0019
    103  CG2       13.2530   33.0800   54.3960 C.3   175  ILE175      0.0019
    104  CD1       10.7710   33.0750   56.3620 C.3   175  ILE175      0.0001
@<TRIPOS>BOND
     1     4     3    2
     2     3     2    1
     3     2     1    1
     4     2     5    1
     5     5     6    1
     6   100    99    2
     7     6     7    1
     8    72    73    2
     9    72    71    1
    10     7     8    1
    11    99    98    1
    12    74    71    1
    13    74    75    1
    14    98    97    1
    15    98   101    1
    16    71    70    1
    17   103   101    1
    18    77    75   ar
    19    77    79   ar
    20   101   102    1
    21     8     9    1
    22    75    76   ar
    23    32    30    1
    24   102   104    1
    25    26    27    1
    26    79    80   ar
    27    76    78   ar
    28    31    30    1
    29    30    27    1
    30    16    15    1
    31    16    19    1
    32    16    17    1
    33    19    20    1
    34    27    28    1
    35    10    11    1
    36    92    91    2
    37    80    78   ar
    38    80    81    1
    39    18    17    2
    40    87    86    1
    41    91    90    1
    42    21    20    1
    43    21    22    1
    44    28    29    2
    45    11    12    1
    46    11    14    1
    47    24    23    1
    48    93    90    1
    49    93    94    1
    50    12    13    2
    51    86    88    1
    52    86    83    1
    53    90    89    1
    54    22    23    2
    55    23    25    1
    56    96    94   ar
    57    89    84   am
    58    94    95   ar
    59    85    84    2
    60    84    83    1
    61    83    82    1
    62    33    34    1
    63    55    52    1
    64    38    37    1
    65    68    67    1
    66    34    37    1
    67    34    35    1
    68    52    51    1
    69    52    53    1
    70    37    39    1
    71    69    67    1
    72    49    48    1
    73    67    64    1
    74    50    48    1
    75    35    36    2
    76    48    47    2
    77    53    56   am
    78    53    54    2
    79    61    60    1
    80    56    57    1
    81    64    63    1
    82    64    65    1
    83    63    58   am
    84    47    46    1
    85    62    60    1
    86    60    57    1
    87    46    45    1
    88    57    58    1
    89    58    59    2
    90    65    66    2
    91    45    44    1
    92    44    41    1
    93    43    42    2
    94    42    41    1
    95    41    40    1
