@<TRIPOS>MOLECULE
tmp/2v2aA00.pdb
 106 103 0 0 0
SMALL
GASTEIGER

@<TRIPOS>ATOM
      1  N         35.9920   97.7500   36.1120 N.3    29  ASN29      -0.1225
      2  CA        36.0260   96.3890   36.6640 C.3    29  ASN29       0.1785
      3  C         36.7340   95.4140   35.7240 C.2    29  ASN29       0.2598
      4  O         36.5920   94.2010   35.8750 O.2    29  ASN29      -0.2718
      5  CB        34.5990   95.8800   36.9300 C.3    29  ASN29       0.1169
      6  CG        33.8020   95.7500   35.6510 C.2    29  ASN29       0.2627
      7  OD1       33.7100   96.7060   34.8840 O.2    29  ASN29      -0.2716
      8  ND2       33.2620   94.5660   35.3910 N.am   29  ASN29      -0.0877
      9  N         37.4430   95.9570   34.7360 N.am   30  GLY30      -0.1942
     10  CA        38.1820   95.1370   33.7980 C.3    30  GLY30       0.2014
     11  C         39.1640   94.2390   34.5270 C.2    30  GLY30       0.2639
     12  O         39.9520   94.6900   35.3560 O.2    30  GLY30      -0.2714
     13  N         39.0880   92.9510   34.2390 N.am   31  GLY31      -0.1939
     14  CA        40.1170   92.0270   34.7210 C.3    31  GLY31       0.2014
     15  C         39.5880   91.2450   35.9100 C.2    31  GLY31       0.2638
     16  O         38.6060   91.6290   36.5370 O.2    31  GLY31      -0.2714
     17  N         40.2200   90.1110   36.1930 N.am   32  ASN32      -0.1972
     18  CA        39.8210   89.2600   37.3020 C.3    32  ASN32       0.1688
     19  C         40.9830   88.3440   37.6150 C.2    32  ASN32       0.2292
     20  O         41.8490   88.1170   36.7740 O.2    32  ASN32      -0.2864
     21  CB        38.5250   88.4590   37.0090 C.3    32  ASN32       0.1181
     22  CG        38.1810   88.3960   35.5230 C.2    32  ASN32       0.2629
     23  OD1       37.3130   89.1470   35.0230 O.2    32  ASN32      -0.2716
     24  ND2       38.8350   87.5160   34.8140 N.am   32  ASN32      -0.0877
     25  N         35.9320   90.0500   42.9650 N.3    74  GLY74      -0.1210
     26  CA        34.4760   90.1060   42.8450 C.3    74  GLY74       0.1956
     27  C         33.9860   90.6630   41.5100 C.2    74  GLY74       0.2613
     28  O         34.6650   91.4440   40.8510 O.2    74  GLY74      -0.2717
     29  N         32.7760   90.2720   41.1300 N.am   75  SER75      -0.1938
     30  CA        32.1670   90.7550   39.8950 C.3    75  SER75       0.2055
     31  C         31.8290   92.2430   40.0090 C.2    75  SER75       0.2644
     32  O         31.1900   92.6660   40.9740 O.2    75  SER75      -0.2714
     33  CB        30.9050   89.9450   39.5720 C.3    75  SER75       0.2130
     34  OG        30.2930   90.4060   38.3750 O.3    75  SER75      -0.2179
     35  N         32.2830   93.0180   39.0230 N.am   76  GLY76      -0.1939
     36  CA        32.0130   94.4500   38.9670 C.3    76  GLY76       0.2014
     37  C         32.8990   95.2470   39.9100 C.2    76  GLY76       0.2638
     38  O         32.7840   96.4670   39.9910 O.2    76  GLY76      -0.2714
     39  N         33.7990   94.5630   40.6120 N.am   77  LYS77      -0.1977
     40  CA        34.7140   95.2550   41.5240 C.3    77  LYS77       0.1596
     41  C         35.9110   95.7950   40.7580 C.2    77  LYS77       0.2287
     42  O         36.3180   95.2170   39.7450 O.2    77  LYS77      -0.2864
     43  CB        35.1660   94.3260   42.6440 C.3    77  LYS77       0.0298
     44  CG        33.9870   93.7330   43.4260 C.3    77  LYS77       0.0038
     45  CD        33.0680   94.8360   43.9410 C.3    77  LYS77       0.0206
     46  CE        31.9410   94.2540   44.8010 C.3    77  LYS77       0.1093
     47  NZ        31.0620   95.3410   45.3520 N.3    77  LYS77      -0.1314
     48  N         33.9040   87.0180   40.3640 N.3   115  THR115     -0.1203
     49  CA        34.0090   87.4480   38.9850 C.3   115  THR115      0.1994
     50  C         33.0500   86.7360   38.0220 C.2   115  THR115      0.2619
     51  O         32.8600   85.5090   38.0930 O.2   115  THR115     -0.2717
     52  CB        35.4510   87.2630   38.4760 C.3   115  THR115      0.1784
     53  OG1       35.4820   87.5710   37.0800 O.3   115  THR115     -0.2211
     54  CG2       35.9510   85.8250   38.7060 C.3   115  THR115      0.0376
     55  N         32.4580   87.5170   37.1140 N.am  116  SER116     -0.1937
     56  CA        31.6060   86.9770   36.0470 C.3   116  SER116      0.2055
     57  C         32.3590   86.0520   35.0810 C.2   116  SER116      0.2642
     58  O         31.7340   85.3480   34.2770 O.2   116  SER116     -0.2714
     59  CB        30.9530   88.1150   35.2410 C.3   116  SER116      0.2130
     60  OG        31.9220   88.8240   34.4780 O.3   116  SER116     -0.2179
     61  N         33.6870   86.0620   35.1540 N.am  117  GLU117     -0.1976
     62  CA        34.5290   85.1550   34.3520 C.3   117  GLU117      0.1602
     63  C         34.9340   83.9290   35.1600 C.2   117  GLU117      0.2287
     64  O         35.8940   83.2340   34.8300 O.2   117  GLU117     -0.2864
     65  CB        35.7940   85.8560   33.8540 C.3   117  GLU117      0.0415
     66  CG        35.5570   87.0340   32.9080 C.3   117  GLU117      0.1163
     67  CD        34.8610   86.6810   31.5950 C.2   117  GLU117      0.3649
     68  OE1       34.6590   87.6240   30.8030 O.co2 117  GLU117     -0.2457
     69  OE2       34.5210   85.5030   31.3290 O.co2 117  GLU117     -0.2457
     70  N         43.4180   87.5290   34.5310 N.3   141  HIS141     -0.1241
     71  CA        42.9320   88.1860   33.3150 C.3   141  HIS141      0.1621
     72  C         43.0440   89.6930   33.4800 C.2   141  HIS141      0.2264
     73  O         42.6320   90.2490   34.4970 O.2   141  HIS141     -0.2867
     74  CB        41.4750   87.7880   33.0170 C.3   141  HIS141      0.0745
     75  CG        40.7850   88.6800   32.0180 C.ar  141  HIS141      0.0817
     76  ND1       41.2290   88.8330   30.7160 N.ar  141  HIS141     -0.2268
     77  CD2       39.6790   89.4560   32.1330 C.ar  141  HIS141      0.1154
     78  CE1       40.4230   89.6670   30.0750 C.ar  141  HIS141      0.1986
     79  NE2       39.4720   90.0580   30.9110 N.ar  141  HIS141     -0.2212
     80  N         43.3700   93.6340   30.9850 N.3   143  HIS143     -0.1241
     81  CA        43.2200   94.2950   29.7040 C.3   143  HIS143      0.1621
     82  C         44.5510   94.9480   29.3440 C.2   143  HIS143      0.2264
     83  O         44.6970   96.1700   29.3110 O.2   143  HIS143     -0.2867
     84  CB        42.0450   95.2700   29.7570 C.3   143  HIS143      0.0745
     85  CG        40.7360   94.5910   30.0350 C.ar  143  HIS143      0.0817
     86  ND1       39.5730   95.2910   30.2650 N.ar  143  HIS143     -0.2268
     87  CD2       40.4180   93.2760   30.1420 C.ar  143  HIS143      0.1154
     88  CE1       38.5830   94.4320   30.4770 C.ar  143  HIS143      0.1986
     89  NE2       39.0750   93.2040   30.4160 N.ar  143  HIS143     -0.2212
     90  N         32.1010   87.6720   26.2870 N.3   188  PRO188     -0.2116
     91  CA        32.6650   87.4550   27.6220 C.3   188  PRO188      0.1372
     92  C         31.6330   86.9520   28.6250 C.2   188  PRO188      0.2244
     93  O         30.4250   87.1460   28.4250 O.2   188  PRO188     -0.2868
     94  CB        33.1110   88.8590   28.0660 C.3   188  PRO188      0.0268
     95  CG        32.9370   89.7350   26.9360 C.3   188  PRO188      0.0207
     96  CD        32.0750   89.0980   25.9190 C.3   188  PRO188      0.0892
     97  N         40.0760   92.4740   23.5460 N.3   212  HIS212     -0.1241
     98  CA        39.6130   92.3780   24.9300 C.3   212  HIS212      0.1621
     99  C         40.7860   92.2650   25.8990 C.2   212  HIS212      0.2264
    100  O         40.9790   93.1450   26.7400 O.2   212  HIS212     -0.2867
    101  CB        38.6210   91.2150   25.0760 C.3   212  HIS212      0.0745
    102  CG        38.0010   91.0970   26.4400 C.ar  212  HIS212      0.0817
    103  ND1       36.7940   90.4580   26.6530 N.ar  212  HIS212     -0.2268
    104  CD2       38.4310   91.5040   27.6590 C.ar  212  HIS212      0.1154
    105  CE1       36.5120   90.4720   27.9470 C.ar  212  HIS212      0.1986
    106  NE2       37.4880   91.1050   28.5800 N.ar  212  HIS212     -0.2212
@<TRIPOS>BOND
     1    97    98    1
     2    98   101    1
     3    98    99    1
     4   101   102    1
     5    99   100    2
     6    96    90    1
     7    96    95    1
     8    90    91    1
     9   102   103   ar
    10   102   104   ar
    11   103   105   ar
    12    95    94    1
    13    91    94    1
    14    91    92    1
    15   104   106   ar
    16   105   106   ar
    17    93    92    2
    18    83    82    2
    19    82    81    1
    20    81    84    1
    21    81    80    1
    22    84    85    1
    23    85    87   ar
    24    85    86   ar
    25    78    76   ar
    26    78    79   ar
    27    87    89   ar
    28    86    88   ar
    29    89    88   ar
    30    76    75   ar
    31    68    67   ar
    32    79    77   ar
    33    69    67   ar
    34    67    66    1
    35    75    77   ar
    36    75    74    1
    37    66    65    1
    38    74    71    1
    39    71    72    1
    40    71    70    1
    41    72    73    2
    42    10    11    1
    43    10     9    1
    44    65    62    1
    45    13    11   am
    46    13    14    1
    47    58    57    2
    48    62    61    1
    49    62    63    1
    50    60    59    1
    51    11    12    2
    52    14    15    1
    53     9     3   am
    54    24    22   am
    55    64    63    2
    56     7     6    2
    57    23    22    2
    58    57    61   am
    59    57    56    1
    60    59    56    1
    61     8     6   am
    62    22    21    1
    63     6     5    1
    64     3     4    2
    65     3     2    1
    66    15    17   am
    67    15    16    2
    68    56    55    1
    69     1     2    1
    70    17    18    1
    71     2     5    1
    72    20    19    2
    73    21    18    1
    74    53    52    1
    75    55    50   am
    76    18    19    1
    77    50    51    2
    78    50    49    1
    79    34    33    1
    80    52    54    1
    81    52    49    1
    82    36    35    1
    83    36    37    1
    84    49    48    1
    85    35    31   am
    86    33    30    1
    87    42    41    2
    88    30    31    1
    89    30    29    1
    90    37    38    2
    91    37    39   am
    92    31    32    2
    93    39    40    1
    94    41    40    1
    95    28    27    2
    96    29    27   am
    97    27    26    1
    98    40    43    1
    99    43    44    1
   100    26    25    1
   101    44    45    1
   102    45    46    1
   103    46    47    1
