@<TRIPOS>MOLECULE
tmp/2v2eA01.pdb
 113 112 0 0 0
SMALL
GASTEIGER

@<TRIPOS>ATOM
      1  N        -13.9720    2.4490   -5.6690 N.3    45  ARG45      -0.1245
      2  CA       -12.9830    1.6400   -4.9770 C.3    45  ARG45       0.1563
      3  C        -12.0350    0.9400   -5.9620 C.2    45  ARG45       0.2260
      4  O        -10.8210    0.8660   -5.7190 O.2    45  ARG45      -0.2867
      5  CB       -13.6560    0.6220   -4.0470 C.3    45  ARG45       0.0307
      6  CG       -12.6620   -0.0370   -3.0970 C.3    45  ARG45       0.0489
      7  CD       -13.3640   -1.0210   -2.1580 C.3    45  ARG45       0.2205
      8  NE       -12.4010   -1.6930   -1.2930 N.pl3  45  ARG45      -0.0865
      9  CZ       -12.3290   -3.0170   -1.1370 C.cat  45  ARG45       0.5346
     10  NH1      -13.1800   -3.8320   -1.7730 N.pl3  45  ARG45       0.1354
     11  NH2      -11.4130   -3.5230   -0.3350 N.pl3  45  ARG45       0.1354
     12  N         -9.4820    3.3860   -7.1620 N.3    48  TRP48      -0.1227
     13  CA        -8.5650    3.6520   -6.0550 C.3    48  TRP48       0.1737
     14  C         -7.5580    2.5120   -5.8650 C.2    48  TRP48       0.2595
     15  O         -6.3520    2.7560   -5.8300 O.2    48  TRP48      -0.2718
     16  CB        -9.3830    4.0010   -4.7980 C.3    48  TRP48       0.0564
     17  CG        -8.9120    3.4880   -3.4250 C.ar   48  TRP48       0.0003
     18  CD1       -9.6710    2.7690   -2.5400 C.ar   48  TRP48       0.0946
     19  CD2       -7.6410    3.7050   -2.7700 C.ar   48  TRP48       0.0152
     20  NE1       -8.9630    2.5110   -1.3970 N.ar   48  TRP48      -0.2442
     21  CE2       -7.7200    3.0790   -1.4980 C.ar   48  TRP48       0.0810
     22  CE3       -6.4560    4.3740   -3.1210 C.ar   48  TRP48       0.0012
     23  CZ2       -6.6490    3.0780   -0.5820 C.ar   48  TRP48       0.0191
     24  CZ3       -5.3810    4.3780   -2.2020 C.ar   48  TRP48       0.0001
     25  CH2       -5.4960    3.7320   -0.9440 C.ar   48  TRP48       0.0015
     26  N         -8.0340    1.2700   -5.8080 N.am   49  HIS49      -0.1975
     27  CA        -7.1310    0.1120   -5.6280 C.3    49  HIS49       0.1656
     28  C         -6.1940   -0.1540   -6.8080 C.2    49  HIS49       0.2291
     29  O         -5.0550   -0.5880   -6.6220 O.2    49  HIS49      -0.2864
     30  CB        -7.9270   -1.1520   -5.2530 C.3    49  HIS49       0.0771
     31  CG        -8.2460   -1.2400   -3.7900 C.ar   49  HIS49       0.0820
     32  ND1       -8.4030   -2.4380   -3.1250 N.ar   49  HIS49      -0.2267
     33  CD2       -8.3990   -0.2690   -2.8560 C.ar   49  HIS49       0.1154
     34  CE1       -8.6580   -2.2020   -1.8490 C.ar   49  HIS49       0.1986
     35  NE2       -8.6520   -0.8940   -1.6580 N.ar   49  HIS49      -0.2212
     36  N         -5.9500  -10.3540   -1.5630 N.3    77  PRO77      -0.2102
     37  CA        -6.9530  -10.3300   -0.4920 C.3    77  PRO77       0.1504
     38  C         -7.5220   -8.9230   -0.2420 C.2    77  PRO77       0.2576
     39  O         -8.7030   -8.7900    0.0820 O.2    77  PRO77      -0.2718
     40  CB        -6.1720  -10.8280    0.7290 C.3    77  PRO77       0.0282
     41  CG        -5.1380  -11.7500    0.1350 C.3    77  PRO77       0.0208
     42  CD        -4.7200  -11.0510   -1.1380 C.3    77  PRO77       0.0893
     43  N         -6.6880   -7.8960   -0.4090 N.am   78  SER78      -0.1953
     44  CA        -7.1170   -6.4940   -0.2770 C.3    78  SER78       0.1924
     45  C         -8.1720   -6.0940   -1.3050 C.2    78  SER78       0.2314
     46  O         -8.9410   -5.1590   -1.0790 O.2    78  SER78      -0.2863
     47  CB        -5.9220   -5.5510   -0.4170 C.3    78  SER78       0.2116
     48  OG        -4.9540   -5.8020    0.5810 O.3    78  SER78      -0.2180
     49  N         -1.7570   -2.1130   -0.5800 N.3   141  LEU141     -0.1231
     50  CA        -2.9260   -1.3400   -0.1470 C.3   141  LEU141      0.1678
     51  C         -3.0080   -1.2810    1.3890 C.2   141  LEU141      0.2434
     52  O         -2.4630   -2.1580    2.0730 O.2   141  LEU141     -0.2733
     53  CB        -4.2090   -1.8720   -0.8150 C.3   141  LEU141      0.0284
     54  CG        -4.1160   -1.7760   -2.3520 C.3   141  LEU141      0.0019
     55  CD1       -5.0460   -2.7770   -3.0110 C.3   141  LEU141      0.0001
     56  CD2       -4.3710   -0.3360   -2.8480 C.3   141  LEU141      0.0001
     57  N         -3.6430   -0.2320    1.9420 N.am  142  PRO142     -0.2718
     58  CA        -3.5140   -0.0260    3.3940 C.3   142  PRO142      0.1535
     59  C         -4.3640   -0.9530    4.2770 C.2   142  PRO142      0.2599
     60  O         -5.4640   -1.3750    3.8820 O.2   142  PRO142     -0.2715
     61  CB        -3.9280    1.4410    3.5800 C.3   142  PRO142      0.0310
     62  CG        -4.8610    1.7230    2.4320 C.3   142  PRO142      0.0237
     63  CD        -4.4530    0.8220    1.2880 C.3   142  PRO142      0.0939
     64  N         -3.8280   -1.2800    5.4540 N.am  143  ASP143     -0.1958
     65  CA        -4.5820   -1.9540    6.5110 C.3   143  ASP143      0.1840
     66  C         -5.6310   -1.0040    7.1180 C.2   143  ASP143      0.2621
     67  O         -5.4250    0.2160    7.1690 O.2   143  ASP143     -0.2715
     68  CB        -3.6410   -2.4090    7.6430 C.3   143  ASP143      0.1450
     69  CG        -2.5860   -3.4040    7.1910 C.2   143  ASP143      0.3671
     70  OD1       -2.7960   -4.1370    6.2010 O.co2 143  ASP143     -0.2456
     71  OD2       -1.5350   -3.4590    7.8640 O.co2 143  ASP143     -0.2456
     72  N         -6.7330   -1.5760    7.6070 N.am  144  ALA144     -0.1977
     73  CA        -7.8150   -0.7950    8.2350 C.3   144  ALA144      0.1597
     74  C         -7.7370   -0.7260    9.7710 C.2   144  ALA144      0.2287
     75  O         -8.4370    0.0730   10.3890 O.2   144  ALA144     -0.2864
     76  CB        -9.1660   -1.3450    7.8150 C.3   144  ALA144      0.0319
     77  N        -16.1210   -9.7900    2.7200 N.3   181  ARG181     -0.1231
     78  CA       -15.0460   -9.2370    1.9120 C.3   181  ARG181      0.1694
     79  C        -13.8290   -8.8170    2.7180 C.2   181  ARG181      0.2592
     80  O        -12.7110   -9.2150    2.3940 O.2   181  ARG181     -0.2718
     81  CB       -15.5430   -8.0510    1.0760 C.3   181  ARG181      0.0321
     82  CG       -16.4770   -8.4570   -0.0320 C.3   181  ARG181      0.0489
     83  CD       -16.9050   -7.2520   -0.8570 C.3   181  ARG181      0.2205
     84  NE       -17.9950   -7.6120   -1.7600 N.pl3 181  ARG181     -0.0865
     85  CZ       -18.6560   -6.7560   -2.5380 C.cat 181  ARG181      0.5346
     86  NH1      -18.3400   -5.4640   -2.5490 N.pl3 181  ARG181      0.1354
     87  NH2      -19.6440   -7.1980   -3.3020 N.pl3 181  ARG181      0.1354
     88  N        -14.0510   -7.9920    3.7420 N.am  182  SER182     -0.1952
     89  CA       -12.9640   -7.2980    4.4440 C.3   182  SER182      0.1924
     90  C        -12.9050   -7.5710    5.9460 C.2   182  SER182      0.2314
     91  O        -11.9750   -7.1210    6.6150 O.2   182  SER182     -0.2863
     92  CB       -13.0970   -5.7830    4.2330 C.3   182  SER182      0.2116
     93  OG       -14.2840   -5.3010    4.8450 O.3   182  SER182     -0.2180
     94  N        -15.1840   -6.3340    7.9990 N.3   184  TYR184     -0.1241
     95  CA       -15.8950   -5.1950    8.6030 C.3   184  TYR184      0.1605
     96  C        -17.2970   -5.1530    8.0300 C.2   184  TYR184      0.2264
     97  O        -17.5150   -5.5690    6.8840 O.2   184  TYR184     -0.2867
     98  CB       -15.1730   -3.8660    8.3150 C.3   184  TYR184      0.0534
     99  CG       -13.7900   -3.8360    8.9060 C.ar  184  TYR184     -0.0201
    100  CD1      -13.5940   -3.4720   10.2460 C.ar  184  TYR184     -0.0009
    101  CD2      -12.6800   -4.2090    8.1460 C.ar  184  TYR184     -0.0009
    102  CE1      -12.3280   -3.4680   10.8070 C.ar  184  TYR184      0.0417
    103  CE2      -11.4030   -4.2050    8.6940 C.ar  184  TYR184      0.0417
    104  CZ       -11.2380   -3.8360   10.0310 C.ar  184  TYR184      0.1957
    105  OH        -9.9880   -3.8340   10.5890 O.3   184  TYR184     -0.2866
    106  N        -14.0740    2.5630   10.2630 N.3   229  LEU229     -0.1245
    107  CA       -12.8700    1.7610   10.4880 C.3   229  LEU229      0.1561
    108  C        -11.9720    2.4520   11.5110 C.2   229  LEU229      0.2260
    109  O        -12.0550    3.6740   11.6680 O.2   229  LEU229     -0.2867
    110  CB       -12.0960    1.5820    9.1850 C.3   229  LEU229      0.0270
    111  CG       -12.8960    0.9900    8.0260 C.3   229  LEU229      0.0019
    112  CD1      -12.1360    1.2190    6.7240 C.3   229  LEU229      0.0001
    113  CD2      -13.1490   -0.4960    8.2590 C.3   229  LEU229      0.0001
@<TRIPOS>BOND
     1    12    13    1
     2    28    29    2
     3    28    27    1
     4    13    14    1
     5    13    16    1
     6     3     4    2
     7     3     2    1
     8    14    15    2
     9    14    26   am
    10    26    27    1
    11     1     2    1
    12    27    30    1
    13    30    31    1
    14     2     5    1
    15    16    17    1
    16     5     6    1
    17    31    32   ar
    18    31    33   ar
    19    17    19   ar
    20    17    18   ar
    21    87    85    1
    22    32    34   ar
    23    22    19   ar
    24    22    24   ar
    25     6     7    1
    26    55    54    1
    27    33    35   ar
    28    56    54    1
    29    19    21   ar
    30    86    85    1
    31    18    20   ar
    32    85    84    2
    33    54    53    1
    34    24    25   ar
    35     7     8    1
    36    34    35   ar
    37    10     9    1
    38    84    83    1
    39    36    42    1
    40    36    37    1
    41    21    20   ar
    42    21    23   ar
    43    45    46    2
    44    45    44    1
    45     8     9    2
    46    42    41    1
    47     9    11    1
    48    25    23   ar
    49    83    82    1
    50    53    50    1
    51    49    50    1
    52    37    38    1
    53    37    40    1
    54    47    44    1
    55    47    48    1
    56    43    44    1
    57    43    38   am
    58    38    39    2
    59    50    51    1
    60    82    81    1
    61    41    40    1
    62    81    78    1
    63    63    57    1
    64    63    62    1
    65    51    57   am
    66    51    52    2
    67    78    79    1
    68    78    77    1
    69    57    58    1
    70    80    79    2
    71    62    61    1
    72    79    88   am
    73    58    61    1
    74    58    59    1
    75    88    89    1
    76    60    59    2
    77    92    89    1
    78    92    93    1
    79    59    64   am
    80    89    90    1
    81    64    65    1
    82    90    91    2
    83    70    69   ar
    84    65    66    1
    85    65    68    1
    86   112   111    1
    87    97    96    2
    88    66    67    2
    89    66    72   am
    90    69    68    1
    91    69    71   ar
    92    72    73    1
    93    76    73    1
    94    94    95    1
    95   111   113    1
    96   111   110    1
    97    96    95    1
    98   101   103   ar
    99   101    99   ar
   100    73    74    1
   101    98    95    1
   102    98    99    1
   103   103   104   ar
   104    99   100   ar
   105   110   107    1
   106    74    75    2
   107   104   105    1
   108   104   102   ar
   109   100   102   ar
   110   106   107    1
   111   107   108    1
   112   108   109    2
