@<TRIPOS>MOLECULE
tmp/2v2fB00.pdb
 117 111 0 0 0
SMALL
GASTEIGER

@<TRIPOS>ATOM
      1  N         42.2450   -7.1780   24.1840 N.3    98  SER98      -0.1217
      2  CA        42.7690   -5.9740   24.8280 C.3    98  SER98       0.1889
      3  C         42.1270   -4.6680   24.3830 C.2    98  SER98       0.2288
      4  O         42.2400   -3.6520   25.0700 O.2    98  SER98      -0.2866
      5  CB        44.2980   -5.9020   24.6740 C.3    98  SER98       0.2089
      6  OG        44.7030   -5.9540   23.3210 O.3    98  SER98      -0.2183
      7  N         39.9530   -3.0520   27.0270 N.3   101  LYS101     -0.1245
      8  CA        40.5070   -2.3650   28.1880 C.3   101  LYS101      0.1561
      9  C         40.0800   -0.9240   28.4590 C.2   101  LYS101      0.2260
     10  O         39.7620   -0.5750   29.5920 O.2   101  LYS101     -0.2867
     11  CB        42.0430   -2.4520   28.1620 C.3   101  LYS101      0.0271
     12  CG        42.5640   -3.8570   28.4650 C.3   101  LYS101      0.0035
     13  CD        44.0580   -3.8840   28.7750 C.3   101  LYS101      0.0206
     14  CE        44.9120   -3.9620   27.5370 C.3   101  LYS101      0.1093
     15  NZ        46.3330   -4.2370   27.9120 N.3   101  LYS101     -0.1314
     16  N         51.2050   -8.6760   27.1620 N.3   139  TRP139     -0.1241
     17  CA        51.4300   -9.0870   25.7850 C.3   139  TRP139      0.1605
     18  C         52.9010   -9.2840   25.4340 C.2   139  TRP139      0.2264
     19  O         53.2460  -10.1970   24.6820 O.2   139  TRP139     -0.2867
     20  CB        50.8030   -8.0800   24.8150 C.3   139  TRP139      0.0550
     21  CG        51.5340   -6.7780   24.7160 C.ar  139  TRP139      0.0003
     22  CD1       51.3440   -5.6650   25.4810 C.ar  139  TRP139      0.0946
     23  CD2       52.5850   -6.4590   23.7940 C.ar  139  TRP139      0.0152
     24  NE1       52.2100   -4.6680   25.0900 N.ar  139  TRP139     -0.2442
     25  CE2       52.9830   -5.1310   24.0570 C.ar  139  TRP139      0.0810
     26  CE3       53.2290   -7.1680   22.7710 C.ar  139  TRP139      0.0012
     27  CZ2       53.9980   -4.4940   23.3310 C.ar  139  TRP139      0.0191
     28  CZ3       54.2430   -6.5320   22.0460 C.ar  139  TRP139      0.0001
     29  CH2       54.6140   -5.2100   22.3320 C.ar  139  TRP139      0.0015
     30  N         49.9740   -0.8390   26.9000 N.3   156  SER156     -0.1217
     31  CA        48.9250   -1.8490   27.0840 C.3   156  SER156      0.1889
     32  C         49.2080   -2.9730   28.0870 C.2   156  SER156      0.2288
     33  O         49.2490   -4.1440   27.7080 O.2   156  SER156     -0.2866
     34  CB        48.5700   -2.4580   25.7170 C.3   156  SER156      0.2089
     35  OG        47.3490   -3.1850   25.7540 O.3   156  SER156     -0.2183
     36  N         48.3460   -5.6840   30.7370 N.3   158  ASN158     -0.1240
     37  CA        47.1510   -6.4420   31.1030 C.3   158  ASN158      0.1653
     38  C         47.0180   -6.5180   32.6260 C.2   158  ASN158      0.2266
     39  O         45.9070   -6.5510   33.1660 O.2   158  ASN158     -0.2867
     40  CB        47.2060   -7.8670   30.5490 C.3   158  ASN158      0.1155
     41  CG        46.7090   -7.9590   29.1210 C.2   158  ASN158      0.2627
     42  OD1       46.0830   -7.0280   28.6090 O.2   158  ASN158     -0.2716
     43  ND2       46.9680   -9.0960   28.4770 N.am  158  ASN158     -0.0877
     44  N         51.9260    1.2790   21.6800 N.3   271  THR271     -0.1218
     45  CA        51.6610    0.1280   20.8310 C.3   271  THR271      0.1862
     46  C         50.9250    0.4580   19.5400 C.2   271  THR271      0.2287
     47  O         50.9720   -0.3200   18.5850 O.2   271  THR271     -0.2866
     48  CB        50.8580   -0.9450   21.5970 C.3   271  THR271      0.1770
     49  OG1       49.5580   -0.4340   21.9290 O.3   271  THR271     -0.2211
     50  CG2       51.5910   -1.3340   22.8760 C.3   271  THR271      0.0375
     51  N         43.5760    2.6170   20.1310 N.3   285  LYS285     -0.1231
     52  CA        44.0080    1.4990   20.9540 C.3   285  LYS285      0.1693
     53  C         44.1110    0.2290   20.1340 C.2   285  LYS285      0.2593
     54  O         43.1920   -0.1330   19.3970 O.2   285  LYS285     -0.2718
     55  CB        43.0170    1.2740   22.0960 C.3   285  LYS285      0.0285
     56  CG        43.4690    0.2380   23.1240 C.3   285  LYS285      0.0035
     57  CD        44.6910    0.7170   23.8910 C.3   285  LYS285      0.0206
     58  CE        45.1090   -0.2880   24.9640 C.3   285  LYS285      0.1093
     59  NZ        45.2420   -1.6650   24.3900 N.3   285  LYS285     -0.1314
     60  N         45.2420   -0.4440   20.2640 N.am  286  THR286     -0.1939
     61  CA        45.4570   -1.6990   19.5650 C.3   286  THR286      0.2028
     62  C         44.7400   -2.7670   20.3830 C.2   286  THR286      0.2643
     63  O         44.4850   -2.5810   21.5740 O.2   286  THR286     -0.2714
     64  CB        46.9490   -2.0400   19.5160 C.3   286  THR286      0.1808
     65  OG1       47.5200   -1.7990   20.8070 O.3   286  THR286     -0.2208
     66  CG2       47.6700   -1.1810   18.4900 C.3   286  THR286      0.0379
     67  N         44.4160   -3.8810   19.7430 N.am  287  GLY287     -0.1939
     68  CA        43.7430   -4.9580   20.4390 C.3   287  GLY287      0.2014
     69  C         44.2720   -6.2910   19.9640 C.2   287  GLY287      0.2639
     70  O         44.5900   -6.4490   18.7850 O.2   287  GLY287     -0.2714
     71  N         44.3830   -7.2450   20.8830 N.am  288  THR288     -0.1950
     72  CA        44.8670   -8.5750   20.5490 C.3   288  THR288      0.1897
     73  C         44.1910   -9.6090   21.4470 C.2   288  THR288      0.2313
     74  O         44.0750   -9.4010   22.6510 O.2   288  THR288     -0.2863
     75  CB        46.3960   -8.6790   20.7480 C.3   288  THR288      0.1794
     76  OG1       47.0430   -7.6030   20.0630 O.3   288  THR288     -0.2208
     77  CG2       46.9140   -9.9960   20.1910 C.3   288  THR288      0.0378
     78  N         55.2020  -16.1200   17.6880 N.3   294  TYR294     -0.1241
     79  CA        54.0460  -15.4880   18.3160 C.3   294  TYR294      0.1605
     80  C         52.8260  -15.5920   17.4060 C.2   294  TYR294      0.2264
     81  O         52.8800  -15.2240   16.2340 O.2   294  TYR294     -0.2867
     82  CB        54.3460  -14.0120   18.6180 C.3   294  TYR294      0.0534
     83  CG        53.2290  -13.2900   19.3460 C.ar  294  TYR294     -0.0201
     84  CD1       52.0530  -12.9360   18.6870 C.ar  294  TYR294     -0.0009
     85  CD2       53.3370  -12.9870   20.7020 C.ar  294  TYR294     -0.0009
     86  CE1       51.0090  -12.3010   19.3600 C.ar  294  TYR294      0.0417
     87  CE2       52.3000  -12.3520   21.3850 C.ar  294  TYR294      0.0417
     88  CZ        51.1380  -12.0130   20.7070 C.ar  294  TYR294      0.1957
     89  OH        50.1040  -11.3910   21.3780 O.3   294  TYR294     -0.2866
     90  N         43.4160   -9.6770   15.7450 N.3   299  GLU299     -0.1245
     91  CA        44.1860   -8.4520   15.9400 C.3   299  GLU299      0.1567
     92  C         43.2690   -7.2990   15.5560 C.2   299  GLU299      0.2260
     93  O         42.8050   -7.2170   14.4180 O.2   299  GLU299     -0.2867
     94  CB        45.4380   -8.4240   15.0710 C.3   299  GLU299      0.0388
     95  CG        46.3190   -7.1920   15.3040 C.3   299  GLU299      0.1160
     96  CD        46.7920   -7.0690   16.7510 C.2   299  GLU299      0.3649
     97  OE1       46.9870   -8.1220   17.4060 O.co2 299  GLU299     -0.2457
     98  OE2       46.9750   -5.9260   17.2260 O.co2 299  GLU299     -0.2457
     99  N         50.1120   -8.9180   11.8690 N.3   328  PHE328     -0.1227
    100  CA        49.6980   -8.0900   12.9980 C.3   328  PHE328      0.1736
    101  C         49.6680   -6.6000   12.6740 C.2   328  PHE328      0.2595
    102  O         49.1000   -5.8090   13.4240 O.2   328  PHE328     -0.2718
    103  CB        50.6190   -8.3280   14.1980 C.3   328  PHE328      0.0547
    104  CG        50.3920   -9.6480   14.8740 C.ar  328  PHE328     -0.0202
    105  CD1       51.2080  -10.7410   14.5980 C.ar  328  PHE328     -0.0042
    106  CD2       49.3280   -9.8100   15.7570 C.ar  328  PHE328     -0.0042
    107  CE1       50.9640  -11.9830   15.1890 C.ar  328  PHE328     -0.0003
    108  CE2       49.0750  -11.0450   16.3520 C.ar  328  PHE328     -0.0003
    109  CZ        49.8930  -12.1330   16.0670 C.ar  328  PHE328     -0.0000
    110  N         50.2670   -6.2250   11.5490 N.am  329  LEU329     -0.1980
    111  CA        50.3210   -4.8280   11.1240 C.3   329  LEU329      0.1596
    112  C         49.0490   -4.3180   10.4400 C.2   329  LEU329      0.2287
    113  O         48.7330   -3.1310   10.5100 O.2   329  LEU329     -0.2864
    114  CB        51.4900   -4.6310   10.1580 C.3   329  LEU329      0.0297
    115  CG        52.8510   -5.0570   10.6950 C.3   329  LEU329      0.0022
    116  CD1       53.9160   -4.8880    9.6230 C.3   329  LEU329      0.0001
    117  CD2       53.1680   -4.2250   11.9150 C.3   329  LEU329      0.0001
@<TRIPOS>BOND
     1   116   115    1
     2   114   115    1
     3   114   111    1
     4   112   113    2
     5   112   111    1
     6   115   117    1
     7   111   110    1
     8   110   101   am
     9    99   100    1
    10   101   100    1
    11   101   102    2
    12   100   103    1
    13   103   104    1
    14    93    92    2
    15   105   104   ar
    16   105   107   ar
    17   104   106   ar
    18    94    95    1
    19    94    91    1
    20   107   109   ar
    21    95    96    1
    22    92    91    1
    23    90    91    1
    24   106   108   ar
    25   109   108   ar
    26    81    80    2
    27    96    98   ar
    28    96    97   ar
    29    80    79    1
    30    78    79    1
    31    79    82    1
    32    66    64    1
    33    47    46    2
    34    82    83    1
    35    84    83   ar
    36    84    86   ar
    37    70    69    2
    38    83    85   ar
    39    86    88   ar
    40    54    53    2
    41    64    61    1
    42    64    65    1
    43    46    45    1
    44    61    60    1
    45    61    62    1
    46    67    62   am
    47    67    68    1
    48    69    68    1
    49    69    71   am
    50    76    75    1
    51    51    52    1
    52    53    60   am
    53    53    52    1
    54    77    75    1
    55    62    63    2
    56    72    75    1
    57    72    71    1
    58    72    73    1
    59    85    87   ar
    60    88    89    1
    61    88    87   ar
    62    45    48    1
    63    45    44    1
    64    52    55    1
    65    73    74    2
    66    48    49    1
    67    48    50    1
    68    28    29   ar
    69    28    26   ar
    70    55    56    1
    71    29    27   ar
    72    26    23   ar
    73    56    57    1
    74     6     5    1
    75    27    25   ar
    76    23    25   ar
    77    23    21   ar
    78    57    58    1
    79    25    24   ar
    80     1     2    1
    81     3     2    1
    82     3     4    2
    83    59    58    1
    84     5     2    1
    85    19    18    2
    86    21    20    1
    87    21    22   ar
    88    20    17    1
    89    24    22   ar
    90    18    17    1
    91    34    35    1
    92    34    31    1
    93    17    16    1
    94    30    31    1
    95     7     8    1
    96    31    32    1
    97    14    15    1
    98    14    13    1
    99    33    32    2
   100    11     8    1
   101    11    12    1
   102     8     9    1
   103     9    10    2
   104    12    13    1
   105    43    41   am
   106    42    41    2
   107    41    40    1
   108    40    37    1
   109    36    37    1
   110    37    38    1
   111    38    39    2
