@<TRIPOS>MOLECULE
tmp/2v2gA00.pdb
 85 81 0 0 0
SMALL
GASTEIGER

@<TRIPOS>ATOM
      1  N        -19.6470   50.2750  -19.4190 N.3    37  PRO37      -0.2102
      2  CA       -19.8010   51.6700  -19.9060 C.3    37  PRO37       0.1504
      3  C        -20.7560   52.5670  -19.1350 C.2    37  PRO37       0.2575
      4  O        -20.3960   53.6860  -18.8040 O.2    37  PRO37      -0.2718
      5  CB       -20.2010   51.4900  -21.3830 C.3    37  PRO37       0.0282
      6  CG       -19.7800   50.1070  -21.7200 C.3    37  PRO37       0.0208
      7  CD       -19.9300   49.2870  -20.4900 C.3    37  PRO37       0.0893
      8  N        -21.9420   52.0550  -18.7880 N.am   38  ARG38      -0.1980
      9  CA       -22.9710   52.8910  -18.2270 C.3    38  ARG38       0.1597
     10  C        -23.9510   52.0120  -17.4490 C.2    38  ARG38       0.2287
     11  O        -24.3120   50.9580  -17.9040 O.2    38  ARG38      -0.2864
     12  CB       -23.7370   53.6450  -19.3590 C.3    38  ARG38       0.0334
     13  CG       -24.4160   54.8740  -18.9040 C.3    38  ARG38       0.0492
     14  CD       -23.3980   55.9240  -18.8480 C.3    38  ARG38       0.2205
     15  NE       -23.8540   57.1610  -18.2500 N.pl3  38  ARG38      -0.0865
     16  CZ       -24.4580   58.1340  -18.9370 C.cat  38  ARG38       0.5346
     17  NH1      -24.7360   57.9940  -20.2400 N.pl3  38  ARG38       0.1354
     18  NH2      -24.8200   59.2420  -18.2980 N.pl3  38  ARG38       0.1354
     19  N        -27.9720   50.1160  -18.6580 N.3    41  THR41      -0.1204
     20  CA       -27.8700   49.6580  -20.0290 C.3    41  THR41       0.1979
     21  C        -27.8870   48.1370  -20.0520 C.2    41  THR41       0.2460
     22  O        -27.5050   47.4860  -19.0510 O.2    41  THR41      -0.2732
     23  CB       -26.6370   50.2390  -20.7000 C.3    41  THR41       0.1783
     24  OG1      -25.4830   49.7500  -20.0020 O.3    41  THR41      -0.2211
     25  CG2      -26.7120   51.7520  -20.7210 C.3    41  THR41       0.0376
     26  N        -28.4080   47.5590  -21.1680 N.am   42  PRO42      -0.2717
     27  CA       -28.8440   46.1380  -21.1700 C.3    42  PRO42       0.1535
     28  C        -27.7210   45.1140  -21.0640 C.2    42  PRO42       0.2598
     29  O        -27.7700   44.2100  -20.2230 O.2    42  PRO42      -0.2715
     30  CB       -29.6660   46.0050  -22.4720 C.3    42  PRO42       0.0310
     31  CG       -29.2050   47.1340  -23.3340 C.3    42  PRO42       0.0237
     32  CD       -28.8440   48.2700  -22.3950 C.3    42  PRO42       0.0939
     33  N        -26.7310   45.1670  -21.9500 N.am   43  VAL43      -0.1964
     34  CA       -25.6040   44.1760  -21.8440 C.3    43  VAL43       0.1727
     35  C        -24.9290   44.2310  -20.4800 C.2    43  VAL43       0.2616
     36  O        -24.6410   43.2130  -19.8980 O.2    43  VAL43      -0.2715
     37  CB       -24.5680   44.3170  -23.0140 C.3    43  VAL43       0.0290
     38  CG1      -23.2610   43.5000  -22.7380 C.3    43  VAL43       0.0023
     39  CG2      -25.2860   43.9120  -24.3600 C.3    43  VAL43       0.0023
     40  N        -24.6860   45.4550  -20.0180 N.am   44  SER44      -0.1950
     41  CA       -24.0520   45.6870  -18.7170 C.3    44  SER44       0.1924
     42  C        -24.8520   45.0030  -17.6140 C.2    44  SER44       0.2314
     43  O        -24.2560   44.3950  -16.6880 O.2    44  SER44      -0.2863
     44  CB       -23.9250   47.1470  -18.4050 C.3    44  SER44       0.2116
     45  OG       -23.0190   47.7890  -19.3020 O.3    44  SER44      -0.2180
     46  N        -18.5350   54.8240  -27.2160 N.3   116  GLU116     -0.1245
     47  CA       -19.6380   55.1890  -26.3120 C.3   116  GLU116      0.1567
     48  C        -19.1740   56.3630  -25.4710 C.2   116  GLU116      0.2260
     49  O        -18.2100   56.2390  -24.7130 O.2   116  GLU116     -0.2867
     50  CB       -20.0810   54.0490  -25.3950 C.3   116  GLU116      0.0388
     51  CG       -20.7660   52.9370  -26.1250 C.3   116  GLU116      0.1160
     52  CD       -21.9550   53.4180  -26.9380 C.2   116  GLU116      0.3649
     53  OE1      -22.7770   54.1990  -26.3690 O.co2 116  GLU116     -0.2457
     54  OE2      -22.0940   53.0210  -28.1350 O.co2 116  GLU116     -0.2457
     55  N        -16.4360   57.3110  -21.5180 N.3   124  LEU124     -0.1245
     56  CA       -16.9620   56.2510  -20.6880 C.3   124  LEU124      0.1561
     57  C        -16.0060   55.0730  -20.8160 C.2   124  LEU124      0.2260
     58  O        -15.2090   54.9920  -21.7720 O.2   124  LEU124     -0.2867
     59  CB       -18.3400   55.8130  -21.1490 C.3   124  LEU124      0.0270
     60  CG       -19.4910   56.8010  -20.9740 C.3   124  LEU124      0.0019
     61  CD1      -20.6920   56.2950  -21.8260 C.3   124  LEU124      0.0001
     62  CD2      -19.8010   56.9610  -19.4240 C.3   124  LEU124      0.0001
     63  N        -15.5190   47.5240  -21.5940 N.3   127  ARG127     -0.1245
     64  CA       -15.7680   46.3640  -20.7950 C.3   127  ARG127      0.1563
     65  C        -14.4290   45.6960  -20.5020 C.2   127  ARG127      0.2260
     66  O        -13.9770   44.7560  -21.1890 O.2   127  ARG127     -0.2867
     67  CB       -16.7000   45.4370  -21.5470 C.3   127  ARG127      0.0307
     68  CG       -18.0900   45.9650  -21.7660 C.3   127  ARG127      0.0489
     69  CD       -19.0350   44.9750  -22.3960 C.3   127  ARG127      0.2205
     70  NE       -20.2000   45.7000  -22.8890 N.pl3 127  ARG127     -0.0865
     71  CZ       -21.1550   46.2660  -22.1580 C.cat 127  ARG127      0.5346
     72  NH1      -21.2060   46.0810  -20.8620 N.pl3 127  ARG127      0.1354
     73  NH2      -22.0240   47.0740  -22.7350 N.pl3 127  ARG127      0.1354
     74  N        -17.8880   48.2550  -25.8490 N.3   146  ALA146     -0.1231
     75  CA       -19.2440   48.2860  -25.3480 C.3   146  ALA146      0.1694
     76  C        -20.1850   47.3260  -26.0830 C.2   146  ALA146      0.2592
     77  O        -21.1430   46.8460  -25.5350 O.2   146  ALA146     -0.2718
     78  CB       -19.7700   49.7230  -25.4200 C.3   146  ALA146      0.0304
     79  N        -19.9180   47.0780  -27.3550 N.am  147  THR147     -0.1953
     80  CA       -20.7720   46.2360  -28.1920 C.3   147  THR147      0.1897
     81  C        -20.8370   44.7610  -27.7740 C.2   147  THR147      0.2313
     82  O        -21.7320   44.0130  -28.2030 O.2   147  THR147     -0.2863
     83  CB       -20.1980   46.1800  -29.6850 C.3   147  THR147      0.1794
     84  OG1      -18.8310   45.7070  -29.7300 O.3   147  THR147     -0.2208
     85  CG2      -20.3310   47.5310  -30.3730 C.3   147  THR147      0.0378
@<TRIPOS>BOND
     1    85    83    1
     2    84    83    1
     3    83    80    1
     4    82    81    2
     5    80    81    1
     6    80    79    1
     7    54    52   ar
     8    79    76   am
     9    46    47    1
    10    52    53   ar
    11    52    51    1
    12    47    48    1
    13    47    50    1
    14    51    50    1
    15    76    77    2
    16    76    75    1
    17    74    75    1
    18    48    49    2
    19    78    75    1
    20    39    37    1
    21    31    30    1
    22    31    32    1
    23    37    38    1
    24    37    34    1
    25    70    69    1
    26    70    71    2
    27    73    71    1
    28    30    27    1
    29    69    68    1
    30    32    26    1
    31    71    72    1
    32    33    34    1
    33    33    28   am
    34    34    35    1
    35    61    60    1
    36    58    57    2
    37    68    67    1
    38     6     5    1
    39     6     7    1
    40    63    64    1
    41    67    64    1
    42    55    56    1
    43     5     2    1
    44    66    65    2
    45    27    26    1
    46    27    28    1
    47    26    21   am
    48    59    60    1
    49    59    56    1
    50    28    29    2
    51    60    62    1
    52    57    56    1
    53    64    65    1
    54    25    23    1
    55    23    20    1
    56    23    24    1
    57     7     1    1
    58    35    40   am
    59    35    36    2
    60    17    16    1
    61    21    20    1
    62    21    22    2
    63    20    19    1
    64    40    41    1
    65     2     1    1
    66     2     3    1
    67    12    13    1
    68    12     9    1
    69    45    44    1
    70     3     4    2
    71     3     8   am
    72    16    18    1
    73    16    15    2
    74    13    14    1
    75    14    15    1
    76     8     9    1
    77    41    44    1
    78    41    42    1
    79     9    10    1
    80    11    10    2
    81    42    43    2
