@<TRIPOS>MOLECULE
tmp/2v2qA00.pdb
 99 95 0 0 0
SMALL
GASTEIGER

@<TRIPOS>ATOM
      1  N         16.3490   -9.8310    8.6910 N.3    24  GLY24      -0.1210
      2  CA        16.0730  -10.9800    9.5650 C.3    24  GLY24       0.1956
      3  C         15.0900  -10.6330   10.6730 C.2    24  GLY24       0.2612
      4  O         14.3060  -11.4810   11.1200 O.2    24  GLY24      -0.2717
      5  N         15.1410   -9.3730   11.1000 N.am   25  TYR25      -0.1962
      6  CA        14.2480   -8.8180   12.1070 C.3    25  TYR25       0.1771
      7  C         12.7990   -8.7210   11.6160 C.2    25  TYR25       0.2619
      8  O         12.4670   -9.1870   10.5250 O.2    25  TYR25      -0.2715
      9  CB        14.7600   -7.4410   12.5430 C.3    25  TYR25       0.0574
     10  CG        15.9600   -7.4760   13.4730 C.ar   25  TYR25      -0.0198
     11  CD1       17.1630   -8.0760   13.0780 C.ar   25  TYR25      -0.0009
     12  CD2       15.9020   -6.8840   14.7370 C.ar   25  TYR25      -0.0009
     13  CE1       18.2700   -8.1030   13.9260 C.ar   25  TYR25       0.0417
     14  CE2       17.0030   -6.9050   15.5940 C.ar   25  TYR25       0.0417
     15  CZ        18.1850   -7.5130   15.1790 C.ar   25  TYR25       0.1957
     16  OH        19.2800   -7.5410   16.0150 O.3    25  TYR25      -0.2866
     17  N         11.9400   -8.1200   12.4380 N.am   26  HIS26      -0.1973
     18  CA        10.5030   -8.0640   12.1670 C.3    26  HIS26       0.1656
     19  C          9.9640   -6.6850   12.4360 C.2    26  HIS26       0.2291
     20  O         10.3930   -6.0280   13.3870 O.2    26  HIS26      -0.2864
     21  CB         9.7460   -9.0560   13.0520 C.3    26  HIS26       0.0771
     22  CG        10.0360  -10.4840   12.7330 C.ar   26  HIS26       0.0820
     23  ND1       11.1650  -11.1270   13.1900 N.ar   26  HIS26      -0.2267
     24  CD2        9.3500  -11.3930   12.0020 C.ar   26  HIS26       0.1154
     25  CE1       11.1620  -12.3720   12.7500 C.ar   26  HIS26       0.1986
     26  NE2       10.0720  -12.5600   12.0270 N.ar   26  HIS26      -0.2212
     27  N          7.0580   -4.4420   13.8500 N.3    28  ILE28      -0.1245
     28  CA         6.1380   -4.6840   14.9510 C.3    28  ILE28       0.1561
     29  C          5.3800   -3.4120   15.3080 C.2    28  ILE28       0.2260
     30  O          5.7980   -2.3130   14.9460 O.2    28  ILE28      -0.2867
     31  CB         6.8910   -5.2120   16.2300 C.3    28  ILE28       0.0252
     32  CG1        7.7940   -4.1220   16.8270 C.3    28  ILE28       0.0019
     33  CG2        7.6770   -6.4960   15.9190 C.3    28  ILE28       0.0019
     34  CD1        8.1780   -4.3340   18.2850 C.3    28  ILE28       0.0001
     35  N         16.0240  -11.8680   30.2210 N.3    91  GLY91      -0.1225
     36  CA        15.1200  -12.8420   29.6100 C.3    91  GLY91       0.1811
     37  C         13.7070  -12.7980   30.1650 C.2    91  GLY91       0.2280
     38  O         12.9220  -13.7260   29.9550 O.2    91  GLY91      -0.2866
     39  N         16.8540   -2.4460   19.8760 N.3   130  ALA130     -0.1245
     40  CA        15.6590   -1.7410   19.3990 C.3   130  ALA130      0.1562
     41  C         14.7620   -1.2220   20.5350 C.2   130  ALA130      0.2260
     42  O         14.0210   -0.2480   20.3490 O.2   130  ALA130     -0.2867
     43  CB        14.8540   -2.6320   18.4330 C.3   130  ALA130      0.0290
     44  N         11.0310   -1.3660   14.2670 N.3   146  LYS146     -0.1245
     45  CA        11.4740   -2.5220   15.0490 C.3   146  LYS146      0.1561
     46  C         11.2270   -2.2690   16.5370 C.2   146  LYS146      0.2260
     47  O         11.5030   -3.1240   17.3750 O.2   146  LYS146     -0.2867
     48  CB        12.9510   -2.8430   14.7740 C.3   146  LYS146      0.0271
     49  CG        13.1960   -3.5100   13.4240 C.3   146  LYS146      0.0035
     50  CD        14.6810   -3.7500   13.1280 C.3   146  LYS146      0.0206
     51  CE        15.5060   -2.4590   13.0560 C.3   146  LYS146      0.1093
     52  NZ        14.8990   -1.4170   12.1710 N.3   146  LYS146     -0.1314
     53  N         14.5020  -18.1500   31.3980 N.3   169  SER169     -0.1202
     54  CA        14.9300  -17.0140   30.5980 C.3   169  SER169      0.2020
     55  C         14.4880  -17.2140   29.1420 C.2   169  SER169      0.2619
     56  O         14.9430  -18.1340   28.4660 O.2   169  SER169     -0.2717
     57  CB        16.4500  -16.8440   30.6880 C.3   169  SER169      0.2103
     58  OG        16.9070  -15.7890   29.8630 O.3   169  SER169     -0.2182
     59  N         13.5910  -16.3520   28.6730 N.am  170  SER170     -0.1937
     60  CA        13.1060  -16.4170   27.3040 C.3   170  SER170      0.2055
     61  C         14.1050  -15.7590   26.3570 C.2   170  SER170      0.2644
     62  O         14.5550  -14.6330   26.5870 O.2   170  SER170     -0.2714
     63  CB        11.7240  -15.7600   27.1920 C.3   170  SER170      0.2130
     64  OG        11.1570  -15.9320   25.9050 O.3   170  SER170     -0.2179
     65  N         14.4720  -16.4940   25.3110 N.am  171  SER171     -0.1935
     66  CA        15.2770  -15.9590   24.2230 C.3   171  SER171      0.2055
     67  C         14.3630  -15.2680   23.2180 C.2   171  SER171      0.2644
     68  O         13.5500  -15.9140   22.5500 O.2   171  SER171     -0.2714
     69  CB        16.0580  -17.0760   23.5340 C.3   171  SER171      0.2130
     70  OG        16.7860  -16.5660   22.4330 O.3   171  SER171     -0.2179
     71  N         14.5020  -13.9500   23.1320 N.am  172  THR172     -0.1936
     72  CA        13.7280  -13.1220   22.2120 C.3   172  THR172      0.2028
     73  C         13.8610  -13.6190   20.7670 C.2   172  THR172      0.2642
     74  O         12.8630  -13.7230   20.0500 O.2   172  THR172     -0.2714
     75  CB        14.1350  -11.6320   22.3490 C.3   172  THR172      0.1808
     76  OG1       13.9300  -11.2190   23.7050 O.3   172  THR172     -0.2208
     77  CG2       13.3130  -10.7310   21.4330 C.3   172  THR172      0.0379
     78  N         15.0900  -13.9540   20.3710 N.am  173  GLY173     -0.1954
     79  CA        15.3840  -14.4730   19.0380 C.3   173  GLY173      0.1869
     80  C         14.7460  -15.8110   18.7240 C.2   173  GLY173      0.2309
     81  O         14.2640  -16.0160   17.6120 O.2   173  GLY173     -0.2863
     82  N         10.8350  -15.0400   18.1940 N.3   176  TYR176     -0.1227
     83  CA        10.6310  -14.4430   16.8640 C.3   176  TYR176      0.1736
     84  C         10.8670  -15.4340   15.7070 C.2   176  TYR176      0.2596
     85  O         10.2670  -15.2950   14.6420 O.2   176  TYR176     -0.2718
     86  CB        11.5200  -13.2060   16.6700 C.3   176  TYR176      0.0548
     87  CG        10.9650  -11.8710   17.1680 C.ar  176  TYR176     -0.0200
     88  CD1       11.4720  -11.2720   18.3140 C.ar  176  TYR176     -0.0009
     89  CD2        9.9640  -11.1920   16.4690 C.ar  176  TYR176     -0.0009
     90  CE1       10.9960  -10.0430   18.7650 C.ar  176  TYR176      0.0417
     91  CE2        9.4690   -9.9570   16.9190 C.ar  176  TYR176      0.0417
     92  CZ         9.9900   -9.3910   18.0670 C.ar  176  TYR176      0.1957
     93  OH         9.5230   -8.1700   18.5330 O.3   176  TYR176     -0.2866
     94  N         11.7270  -16.4320   15.9260 N.am  177  SER177     -0.1952
     95  CA        12.0850  -17.4250   14.9000 C.3   177  SER177      0.1924
     96  C         11.0350  -18.5110   14.7390 C.2   177  SER177      0.2314
     97  O         11.0710  -19.2800   13.7700 O.2   177  SER177     -0.2863
     98  CB        13.4250  -18.0880   15.2380 C.3   177  SER177      0.2116
     99  OG        14.4390  -17.1110   15.3960 O.3   177  SER177     -0.2180
@<TRIPOS>BOND
     1     1     2    1
     2     2     3    1
     3     8     7    2
     4     3     5   am
     5     3     4    2
     6     5     6    1
     7     7     6    1
     8     7    17   am
     9    24    26   ar
    10    24    22   ar
    11    26    25   ar
    12     6     9    1
    13    18    19    1
    14    18    17    1
    15    18    21    1
    16    52    51    1
    17    19    20    2
    18     9    10    1
    19    22    21    1
    20    22    23   ar
    21    25    23   ar
    22    51    50    1
    23    11    10   ar
    24    11    13   ar
    25    50    49    1
    26    49    48    1
    27    10    12   ar
    28    97    96    2
    29    27    28    1
    30    13    15   ar
    31    44    45    1
    32    85    84    2
    33    12    14   ar
    34    96    95    1
    35    48    45    1
    36    95    98    1
    37    95    94    1
    38    30    29    2
    39    28    29    1
    40    28    31    1
    41    45    46    1
    42    15    14   ar
    43    15    16    1
    44    98    99    1
    45    84    94   am
    46    84    83    1
    47    33    31    1
    48    31    32    1
    49    89    91   ar
    50    89    87   ar
    51    46    47    2
    52    86    83    1
    53    86    87    1
    54    32    34    1
    55    83    82    1
    56    91    92   ar
    57    87    88   ar
    58    81    80    2
    59    92    93    1
    60    92    90   ar
    61    88    90   ar
    62    43    40    1
    63    80    79    1
    64    79    78    1
    65    40    39    1
    66    40    41    1
    67    74    73    2
    68    42    41    2
    69    78    73   am
    70    73    72    1
    71    77    75    1
    72    72    75    1
    73    72    71    1
    74    75    76    1
    75    70    69    1
    76    68    67    2
    77    71    67   am
    78    67    66    1
    79    69    66    1
    80    66    65    1
    81    65    61   am
    82    64    63    1
    83    61    62    2
    84    61    60    1
    85    63    60    1
    86    60    59    1
    87    56    55    2
    88    59    55   am
    89    55    54    1
    90    36    37    1
    91    36    35    1
    92    58    57    1
    93    38    37    2
    94    54    57    1
    95    54    53    1
