@<TRIPOS>MOLECULE
tmp/2v2vA00.pdb
 106 103 0 0 0
SMALL
GASTEIGER

@<TRIPOS>ATOM
      1  N         16.2230   -9.8500    8.5740 N.3    25  GLY25      -0.1210
      2  CA        16.0130  -11.0040    9.4600 C.3    25  GLY25       0.1956
      3  C         15.0120  -10.6760   10.5640 C.2    25  GLY25       0.2612
      4  O         14.2240  -11.5280   10.9890 O.2    25  GLY25      -0.2717
      5  N         15.0670   -9.4240   11.0180 N.am   26  TYR26      -0.1962
      6  CA        14.1730   -8.8780   12.0280 C.3    26  TYR26       0.1771
      7  C         12.7170   -8.8170   11.5350 C.2    26  TYR26       0.2619
      8  O         12.4040   -9.2750   10.4310 O.2    26  TYR26      -0.2715
      9  CB        14.6690   -7.4890   12.4450 C.3    26  TYR26       0.0574
     10  CG        15.8900   -7.4860   13.3410 C.ar   26  TYR26      -0.0198
     11  CD1       17.0810   -8.1180   12.9500 C.ar   26  TYR26      -0.0009
     12  CD2       15.8680   -6.8230   14.5760 C.ar   26  TYR26      -0.0009
     13  CE1       18.2140   -8.1110   13.7740 C.ar   26  TYR26       0.0417
     14  CE2       16.9990   -6.8040   15.4120 C.ar   26  TYR26       0.0417
     15  CZ        18.1690   -7.4520   15.0020 C.ar   26  TYR26       0.1957
     16  OH        19.2920   -7.4470   15.8180 O.3    26  TYR26      -0.2866
     17  N         11.8260   -8.2790   12.3690 N.am   27  HIS27      -0.1973
     18  CA        10.3920   -8.2260   12.0510 C.3    27  HIS27       0.1656
     19  C          9.8610   -6.8470   12.3380 C.2    27  HIS27       0.2291
     20  O         10.2960   -6.2070   13.3000 O.2    27  HIS27      -0.2864
     21  CB         9.5960   -9.2340   12.8890 C.3    27  HIS27       0.0771
     22  CG         9.9300  -10.6600   12.5970 C.ar   27  HIS27       0.0820
     23  ND1       11.0870  -11.2570   13.0510 N.ar   27  HIS27      -0.2267
     24  CD2        9.2560  -11.6090   11.9040 C.ar   27  HIS27       0.1154
     25  CE1       11.1160  -12.5120   12.6330 C.ar   27  HIS27       0.1986
     26  NE2       10.0170  -12.7530   11.9390 N.ar   27  HIS27      -0.2212
     27  N          7.0040   -4.6390   13.7860 N.3    29  ILE29      -0.1245
     28  CA         6.0820   -4.8860   14.8750 C.3    29  ILE29       0.1561
     29  C          5.3560   -3.5900   15.1900 C.2    29  ILE29       0.2260
     30  O          5.7820   -2.5130   14.7560 O.2    29  ILE29      -0.2867
     31  CB         6.8310   -5.4250   16.1460 C.3    29  ILE29       0.0252
     32  CG1        7.7290   -4.3460   16.7500 C.3    29  ILE29       0.0019
     33  CG2        7.6390   -6.6940   15.8020 C.3    29  ILE29       0.0019
     34  CD1        8.1890   -4.6170   18.1710 C.3    29  ILE29       0.0001
     35  N         17.3800  -10.7550   33.3770 N.3    91  PRO91      -0.2102
     36  CA        17.4860  -10.9510   31.9280 C.3    91  PRO91       0.1504
     37  C         16.6080  -12.1090   31.4770 C.2    91  PRO91       0.2576
     38  O         16.4470  -13.0820   32.2160 O.2    91  PRO91      -0.2718
     39  CB        18.9710  -11.2800   31.7150 C.3    91  PRO91       0.0282
     40  CG        19.6770  -10.8350   32.9910 C.3    91  PRO91       0.0208
     41  CD        18.6540  -11.0470   34.0740 C.3    91  PRO91       0.0893
     42  N         16.0330  -11.9900   30.2790 N.am   92  GLY92      -0.1957
     43  CA        15.1110  -12.9890   29.7410 C.3    92  GLY92       0.1869
     44  C         13.6920  -12.8610   30.2620 C.2    92  GLY92       0.2309
     45  O         12.8540  -13.7400   30.0290 O.2    92  GLY92      -0.2863
     46  N         16.7580   -2.2980   19.9310 N.3   131  ALA131     -0.1245
     47  CA        15.5400   -1.6250   19.4550 C.3   131  ALA131      0.1562
     48  C         14.6640   -1.1250   20.6000 C.2   131  ALA131      0.2260
     49  O         13.8590   -0.1990   20.4240 O.2   131  ALA131     -0.2867
     50  CB        14.7310   -2.5550   18.5400 C.3   131  ALA131      0.0290
     51  N         10.7790   -1.4320   14.4070 N.3   147  LYS147     -0.1245
     52  CA        11.2160   -2.5910   15.1760 C.3   147  LYS147      0.1561
     53  C         11.0920   -2.2540   16.6550 C.2   147  LYS147      0.2260
     54  O         11.4470   -3.0530   17.5110 O.2   147  LYS147     -0.2867
     55  CB        12.6550   -2.9880   14.7990 C.3   147  LYS147      0.0271
     56  CG        12.7940   -3.5010   13.3600 C.3   147  LYS147      0.0035
     57  CD        14.2370   -3.8590   12.9680 C.3   147  LYS147      0.0206
     58  CE        15.2270   -2.6830   13.0960 C.3   147  LYS147      0.1093
     59  NZ        14.8250   -1.4530   12.3360 N.3   147  LYS147     -0.1314
     60  N         14.5630  -18.0820   31.3680 N.3   170  SER170     -0.1202
     61  CA        14.9950  -16.9720   30.5470 C.3   170  SER170      0.2020
     62  C         14.5510  -17.2250   29.1120 C.2   170  SER170      0.2619
     63  O         15.0360  -18.1440   28.4560 O.2   170  SER170     -0.2717
     64  CB        16.5120  -16.8330   30.6150 C.3   170  SER170      0.2103
     65  OG        16.9480  -15.6760   29.9320 O.3   170  SER170     -0.2182
     66  N         13.6200  -16.4050   28.6410 N.am  171  SER171     -0.1937
     67  CA        13.1110  -16.5040   27.2840 C.3   171  SER171      0.2055
     68  C         14.0700  -15.8470   26.2950 C.2   171  SER171      0.2644
     69  O         14.5530  -14.7320   26.5110 O.2   171  SER171     -0.2714
     70  CB        11.7180  -15.8720   27.1880 C.3   171  SER171      0.2130
     71  OG        11.2190  -15.9220   25.8670 O.3   171  SER171     -0.2179
     72  N         14.3490  -16.5630   25.2150 N.am  172  SER172     -0.1935
     73  CA        15.1600  -16.0440   24.1300 C.3   172  SER172      0.2055
     74  C         14.2530  -15.3660   23.0980 C.2   172  SER172      0.2644
     75  O         13.4650  -16.0150   22.4080 O.2   172  SER172     -0.2714
     76  CB        15.9660  -17.1740   23.4990 C.3   172  SER172      0.2130
     77  OG        16.7470  -16.6950   22.4270 O.3   172  SER172     -0.2179
     78  N         14.3630  -14.0450   23.0340 N.am  173  THR173     -0.1936
     79  CA        13.6060  -13.2130   22.1080 C.3   173  THR173      0.2028
     80  C         13.7630  -13.7050   20.6660 C.2   173  THR173      0.2642
     81  O         12.7740  -13.8040   19.9300 O.2   173  THR173     -0.2714
     82  CB        14.0380  -11.7410   22.2640 C.3   173  THR173      0.1808
     83  OG1       13.9150  -11.3660   23.6420 O.3   173  THR173     -0.2208
     84  CG2       13.1940  -10.8080   21.4190 C.3   173  THR173      0.0379
     85  N         15.0000  -14.0430   20.2910 N.am  174  GLY174     -0.1954
     86  CA        15.3170  -14.5990   18.9780 C.3   174  GLY174      0.1869
     87  C         14.6490  -15.9250   18.6950 C.2   174  GLY174      0.2309
     88  O         14.1090  -16.1240   17.6140 O.2   174  GLY174     -0.2863
     89  N         10.8330  -15.0950   18.1990 N.3   177  TYR177     -0.1227
     90  CA        10.5670  -14.5400   16.8620 C.3   177  TYR177      0.1736
     91  C         10.7440  -15.5830   15.7450 C.2   177  TYR177      0.2596
     92  O         10.0050  -15.5710   14.7670 O.2   177  TYR177     -0.2718
     93  CB        11.4340  -13.3150   16.5710 C.3   177  TYR177      0.0548
     94  CG        10.9170  -11.9810   17.0960 C.ar  177  TYR177     -0.0200
     95  CD1       11.4710  -11.4020   18.2270 C.ar  177  TYR177     -0.0009
     96  CD2        9.9010  -11.2820   16.4370 C.ar  177  TYR177     -0.0009
     97  CE1       11.0280  -10.1730   18.7040 C.ar  177  TYR177      0.0417
     98  CE2        9.4410  -10.0420   16.9110 C.ar  177  TYR177      0.0417
     99  CZ        10.0150   -9.4980   18.0440 C.ar  177  TYR177      0.1957
    100  OH         9.5920   -8.2780   18.5420 O.3   177  TYR177     -0.2866
    101  N         11.6980  -16.5000   15.9070 N.am  178  SER178     -0.1952
    102  CA        11.9990  -17.5160   14.8870 C.3   178  SER178      0.1924
    103  C         10.9640  -18.6370   14.7910 C.2   178  SER178      0.2314
    104  O         11.0960  -19.5340   13.9460 O.2   178  SER178     -0.2863
    105  CB        13.3820  -18.1290   15.1390 C.3   178  SER178      0.2116
    106  OG        14.3320  -17.1130   15.3950 O.3   178  SER178     -0.2180
@<TRIPOS>BOND
     1     1     2    1
     2     2     3    1
     3     8     7    2
     4     3     4    2
     5     3     5   am
     6     5     6    1
     7     7     6    1
     8     7    17   am
     9    24    26   ar
    10    24    22   ar
    11    26    25   ar
    12     6     9    1
    13    18    19    1
    14    18    17    1
    15    18    21    1
    16    59    58    1
    17    19    20    2
    18     9    10    1
    19    22    21    1
    20    22    23   ar
    21    25    23   ar
    22    11    10   ar
    23    11    13   ar
    24    57    58    1
    25    57    56    1
    26    10    12   ar
    27    56    55    1
    28    13    15   ar
    29    27    28    1
    30   104   103    2
    31    51    52    1
    32    12    14   ar
    33    30    29    2
    34    92    91    2
    35   103   102    1
    36    55    52    1
    37    28    29    1
    38    28    31    1
    39   102   105    1
    40   102   101    1
    41    15    14   ar
    42    15    16    1
    43   105   106    1
    44    52    53    1
    45    91   101   am
    46    91    90    1
    47    33    31    1
    48    31    32    1
    49    96    98   ar
    50    96    94   ar
    51    93    90    1
    52    93    94    1
    53    53    54    2
    54    32    34    1
    55    90    89    1
    56    98    99   ar
    57    94    95   ar
    58    88    87    2
    59    99   100    1
    60    99    97   ar
    61    95    97   ar
    62    50    47    1
    63    87    86    1
    64    86    85    1
    65    47    46    1
    66    47    48    1
    67    81    80    2
    68    85    80   am
    69    49    48    2
    70    80    79    1
    71    84    82    1
    72    79    82    1
    73    79    78    1
    74    82    83    1
    75    75    74    2
    76    77    76    1
    77    78    74   am
    78    74    73    1
    79    76    73    1
    80    73    72    1
    81    72    68   am
    82    71    70    1
    83    68    69    2
    84    68    67    1
    85    70    67    1
    86    67    66    1
    87    63    62    2
    88    66    62   am
    89    62    61    1
    90    43    44    1
    91    43    42    1
    92    65    64    1
    93    45    44    2
    94    42    37   am
    95    61    64    1
    96    61    60    1
    97    37    36    1
    98    37    38    2
    99    39    36    1
   100    39    40    1
   101    36    35    1
   102    40    41    1
   103    35    41    1
