@<TRIPOS>MOLECULE
tmp/2v2zA00.pdb
 176 164 0 0 0
SMALL
GASTEIGER

@<TRIPOS>ATOM
      1  N        126.8320   66.9830   36.7250 N.3    10  LYS10      -0.1245
      2  CA       128.0800   67.2440   37.4410 C.3    10  LYS10       0.1561
      3  C        128.9040   65.9700   37.5050 C.2    10  LYS10       0.2260
      4  O        128.3840   64.8760   37.2920 O.2    10  LYS10      -0.2867
      5  CB       127.8290   67.7810   38.8690 C.3    10  LYS10       0.0271
      6  CG       126.9850   66.8950   39.7960 C.3    10  LYS10       0.0035
      7  CD       127.7440   65.7060   40.4080 C.3    10  LYS10       0.0206
      8  CE       126.8080   64.8320   41.2350 C.3    10  LYS10       0.1093
      9  NZ       127.4020   63.5000   41.6100 N.3    10  LYS10      -0.1314
     10  N        131.8080   64.4090   40.5260 N.3    12  ASN12      -0.1240
     11  CA       132.5930   64.6430   41.7270 C.3    12  ASN12       0.1653
     12  C        134.0540   64.4310   41.3960 C.2    12  ASN12       0.2266
     13  O        134.4340   63.3580   40.9330 O.2    12  ASN12      -0.2867
     14  CB       132.1740   63.7130   42.8630 C.3    12  ASN12       0.1155
     15  CG       130.7140   63.8350   43.1940 C.2    12  ASN12       0.2627
     16  OD1      129.8970   63.0600   42.7040 O.2    12  ASN12      -0.2716
     17  ND2      130.3660   64.8230   44.0110 N.am   12  ASN12      -0.0877
     18  N        135.5450   62.4710   46.4470 N.3    15  LEU15      -0.1245
     19  CA       134.5400   62.4720   47.5070 C.3    15  LEU15       0.1561
     20  C        135.0770   61.7100   48.7080 C.2    15  LEU15       0.2260
     21  O        135.7540   60.6970   48.5590 O.2    15  LEU15      -0.2867
     22  CB       133.2120   61.8730   47.0250 C.3    15  LEU15       0.0270
     23  CG       132.0040   61.9260   47.9790 C.3    15  LEU15       0.0019
     24  CD1      130.7130   62.1290   47.2120 C.3    15  LEU15       0.0001
     25  CD2      131.9100   60.6690   48.8330 C.3    15  LEU15       0.0001
     26  N        120.3960   59.3340   59.1110 N.3    24  GLY24      -0.1210
     27  CA       120.5550   58.2550   58.1360 C.3    24  GLY24       0.1956
     28  C        121.3440   58.6800   56.9090 C.2    24  GLY24       0.2612
     29  O        121.6990   57.8530   56.0750 O.2    24  GLY24      -0.2717
     30  N        121.6060   59.9770   56.7970 N.am   25  TYR25      -0.1962
     31  CA       122.5220   60.5040   55.8030 C.3    25  TYR25       0.1771
     32  C        123.9650   60.4090   56.3030 C.2    25  TYR25       0.2619
     33  O        124.2330   59.9280   57.4120 O.2    25  TYR25      -0.2715
     34  CB       122.1590   61.9510   55.4600 C.3    25  TYR25       0.0574
     35  CG       120.9130   62.0670   54.6160 C.ar   25  TYR25      -0.0198
     36  CD1      119.6460   62.0830   55.2080 C.ar   25  TYR25      -0.0009
     37  CD2      120.9930   62.1510   53.2220 C.ar   25  TYR25      -0.0009
     38  CE1      118.4970   62.1760   54.4370 C.ar   25  TYR25       0.0417
     39  CE2      119.8440   62.2490   52.4410 C.ar   25  TYR25       0.0417
     40  CZ       118.6020   62.2560   53.0580 C.ar   25  TYR25       0.1957
     41  OH       117.4520   62.3490   52.3080 O.3    25  TYR25      -0.2866
     42  N        124.8920   60.8530   55.4650 N.am   26  HIS26      -0.1973
     43  CA       126.3070   60.8170   55.7870 C.3    26  HIS26       0.1656
     44  C        126.8760   62.1980   55.6240 C.2    26  HIS26       0.2291
     45  O        126.4570   62.9420   54.7350 O.2    26  HIS26      -0.2864
     46  CB       127.0510   59.8330   54.8820 C.3    26  HIS26       0.0771
     47  CG       126.7430   58.4030   55.1830 C.ar   26  HIS26       0.0820
     48  ND1      125.6380   57.7580   54.6710 N.ar   26  HIS26      -0.2267
     49  CD2      127.3760   57.5010   55.9700 C.ar   26  HIS26       0.1154
     50  CE1      125.6130   56.5150   55.1180 C.ar   26  HIS26       0.1986
     51  NE2      126.6560   56.3340   55.9080 N.ar   26  HIS26      -0.2212
     52  N        129.8120   64.4410   54.4010 N.3    28  ILE28      -0.1245
     53  CA       130.7470   64.2600   53.3040 C.3    28  ILE28       0.1561
     54  C        131.5070   65.5370   52.9850 C.2    28  ILE28       0.2260
     55  O        131.1650   66.6230   53.4530 O.2    28  ILE28      -0.2867
     56  CB       130.0370   63.7450   52.0000 C.3    28  ILE28       0.0252
     57  CG1      129.0870   64.8050   51.4260 C.3    28  ILE28       0.0019
     58  CG2      129.3120   62.4250   52.2510 C.3    28  ILE28       0.0019
     59  CD1      128.6920   64.5610   49.9730 C.3    28  ILE28       0.0001
     60  N        132.4690   69.4270   43.6290 N.3    32  TYR32      -0.1241
     61  CA       131.5040   69.3540   42.5260 C.3    32  TYR32       0.1605
     62  C        132.0440   70.1250   41.3280 C.2    32  TYR32       0.2264
     63  O        132.6270   71.2020   41.4820 O.2    32  TYR32      -0.2867
     64  CB       130.1800   70.0300   42.8940 C.3    32  TYR32       0.0534
     65  CG       129.2950   69.3600   43.9040 C.ar   32  TYR32      -0.0201
     66  CD1      128.5680   68.2100   43.5790 C.ar   32  TYR32      -0.0009
     67  CD2      129.1190   69.9170   45.1670 C.ar   32  TYR32      -0.0009
     68  CE1      127.7300   67.6060   44.5080 C.ar   32  TYR32       0.0417
     69  CE2      128.2880   69.3270   46.1040 C.ar   32  TYR32       0.0417
     70  CZ       127.5910   68.1720   45.7700 C.ar   32  TYR32       0.1957
     71  OH       126.7560   67.5880   46.7020 O.3    32  TYR32      -0.2866
     72  N        111.4640   63.4750   40.6790 N.3    62  LEU62      -0.1245
     73  CA       111.8930   64.5080   41.6270 C.3    62  LEU62       0.1561
     74  C        111.3440   65.8850   41.2840 C.2    62  LEU62       0.2260
     75  O        111.0180   66.6700   42.1790 O.2    62  LEU62      -0.2867
     76  CB       113.4250   64.5930   41.6960 C.3    62  LEU62       0.0270
     77  CG       114.2690   63.5290   42.3950 C.3    62  LEU62       0.0019
     78  CD1      115.6910   64.0610   42.5450 C.3    62  LEU62       0.0001
     79  CD2      113.7120   63.1530   43.7570 C.3    62  LEU62       0.0001
     80  N        125.5320   58.5900   38.6900 N.3    93  GLY93      -0.1225
     81  CA       126.3380   59.4100   39.6050 C.3    93  GLY93       0.1811
     82  C        126.6270   60.8040   39.0770 C.2    93  GLY93       0.2280
     83  O        127.5970   61.4370   39.4900 O.2    93  GLY93      -0.2866
     84  N        124.1170   63.2750   38.9280 N.3    95  GLY95      -0.1225
     85  CA       123.1250   64.1730   39.5130 C.3    95  GLY95       0.1811
     86  C        122.0310   64.6550   38.5740 C.2    95  GLY95       0.2280
     87  O        121.4760   65.7310   38.7830 O.2    95  GLY95      -0.2866
     88  N        118.6850   65.4960   40.2530 N.3    98  SER98      -0.1217
     89  CA       118.8960   66.6600   41.1220 C.3    98  SER98       0.1889
     90  C        118.9710   67.9570   40.3180 C.2    98  SER98       0.2288
     91  O        118.4420   68.9880   40.7340 O.2    98  SER98      -0.2866
     92  CB       120.1930   66.5000   41.9250 C.3    98  SER98       0.2089
     93  OG       120.0770   65.4780   42.9000 O.3    98  SER98      -0.2183
     94  N        114.5910   67.6140   49.2260 N.3   128  ILE128     -0.1231
     95  CA       114.2280   66.5120   48.3360 C.3   128  ILE128      0.1692
     96  C        115.4780   65.7740   47.8190 C.2   128  ILE128      0.2593
     97  O        115.4520   64.5570   47.5920 O.2   128  ILE128     -0.2718
     98  CB       113.3940   67.0510   47.1330 C.3   128  ILE128      0.0266
     99  CG1      112.0670   67.6360   47.6250 C.3   128  ILE128      0.0019
    100  CG2      113.1280   65.9600   46.1060 C.3   128  ILE128      0.0020
    101  CD1      111.3810   68.5580   46.6280 C.3   128  ILE128      0.0001
    102  N        116.5640   66.5220   47.6320 N.am  129  SER129     -0.1938
    103  CA       117.7960   65.9930   47.0520 C.3   129  SER129      0.2055
    104  C        119.0170   66.7340   47.5870 C.2   129  SER129      0.2643
    105  O        119.1030   67.9620   47.4820 O.2   129  SER129     -0.2714
    106  CB       117.7490   66.1040   45.5260 C.3   129  SER129      0.2130
    107  OG       118.9260   65.5660   44.9390 O.3   129  SER129     -0.2179
    108  N        119.9580   65.9790   48.1480 N.am  130  ALA130     -0.1963
    109  CA       121.2050   66.5370   48.6890 C.3   130  ALA130      0.1728
    110  C        122.0950   67.2230   47.6450 C.2   130  ALA130      0.2616
    111  O        122.8110   68.1710   47.9670 O.2   130  ALA130     -0.2715
    112  CB       122.0000   65.4460   49.4330 C.3   130  ALA130      0.0334
    113  N        122.0600   66.7350   46.4070 N.am  131  ASP131     -0.1971
    114  CA       122.8570   67.3090   45.3180 C.3   131  ASP131      0.1709
    115  C        122.2050   68.5010   44.6110 C.2   131  ASP131      0.2293
    116  O        122.8790   69.2250   43.8720 O.2   131  ASP131     -0.2864
    117  CB       123.1870   66.2370   44.2790 C.3   131  ASP131      0.1436
    118  CG       124.4510   65.4650   44.6040 C.2   131  ASP131      0.3671
    119  OD1      125.1560   65.7850   45.5950 O.co2 131  ASP131     -0.2456
    120  OD2      124.7470   64.5220   43.8490 O.co2 131  ASP131     -0.2456
    121  N        125.8920   67.4950   54.1370 N.3   146  LYS146     -0.1245
    122  CA       125.3990   66.3990   53.2920 C.3   146  LYS146      0.1561
    123  C        125.7220   66.6430   51.8060 C.2   146  LYS146      0.2260
    124  O        125.4220   65.8070   50.9490 O.2   146  LYS146     -0.2867
    125  CB       123.8920   66.1950   53.4930 C.3   146  LYS146      0.0271
    126  CG       123.5210   65.6330   54.8660 C.3   146  LYS146      0.0035
    127  CD       122.0070   65.7150   55.1390 C.3   146  LYS146      0.0206
    128  CE       121.5440   67.1360   55.4690 C.3   146  LYS146      0.1093
    129  NZ       122.0810   67.6310   56.7790 N.3   146  LYS146     -0.1314
    130  N        122.2480   54.8970   44.8770 N.3   172  THR172     -0.1203
    131  CA       122.9730   55.7910   45.7880 C.3   172  THR172      0.1994
    132  C        122.8080   55.3510   47.2380 C.2   172  THR172      0.2618
    133  O        123.7870   55.2380   47.9640 O.2   172  THR172     -0.2717
    134  CB       122.5200   57.2590   45.6220 C.3   172  THR172      0.1784
    135  OG1      122.6450   57.6330   44.2520 O.3   172  THR172     -0.2211
    136  CG2      123.3690   58.2060   46.4790 C.3   172  THR172      0.0376
    137  N        121.5650   55.0840   47.6340 N.am  173  GLY173     -0.1956
    138  CA       121.2460   54.5910   48.9740 C.3   173  GLY173      0.1869
    139  C        121.9430   53.3040   49.3680 C.2   173  GLY173      0.2309
    140  O        122.4290   53.1880   50.4930 O.2   173  GLY173     -0.2863
    141  N        125.8680   54.0470   49.8260 N.3   176  TYR176     -0.1227
    142  CA       126.0660   54.7340   51.1110 C.3   176  TYR176      0.1736
    143  C        125.8230   53.8190   52.3230 C.2   176  TYR176      0.2596
    144  O        126.4900   53.9560   53.3420 O.2   176  TYR176     -0.2718
    145  CB       125.1690   55.9680   51.2210 C.3   176  TYR176      0.0548
    146  CG       125.7610   57.2870   50.7370 C.ar  176  TYR176     -0.0200
    147  CD1      125.3100   57.8760   49.5610 C.ar  176  TYR176     -0.0009
    148  CD2      126.7410   57.9570   51.4720 C.ar  176  TYR176     -0.0009
    149  CE1      125.8190   59.0870   49.1150 C.ar  176  TYR176      0.0417
    150  CE2      127.2680   59.1800   51.0320 C.ar  176  TYR176      0.0417
    151  CZ       126.7960   59.7350   49.8480 C.ar  176  TYR176      0.1957
    152  OH       127.2820   60.9380   49.3860 O.3   176  TYR176     -0.2866
    153  N        124.8690   52.8950   52.2010 N.am  177  SER177     -0.1952
    154  CA       124.5090   51.9630   53.2840 C.3   177  SER177      0.1924
    155  C        125.5540   50.8760   53.5390 C.2   177  SER177      0.2314
    156  O        125.5380   50.2340   54.5890 O.2   177  SER177     -0.2863
    157  CB       123.1590   51.2970   52.9960 C.3   177  SER177      0.2116
    158  OG       122.1190   52.2520   52.9910 O.3   177  SER177     -0.2180
    159  N        133.0010   55.7520   47.6550 N.3   209  LEU209     -0.1245
    160  CA       131.7190   55.2610   47.1280 C.3   209  LEU209      0.1561
    161  C        131.9380   54.5560   45.7960 C.2   209  LEU209      0.2260
    162  O        131.2170   53.6200   45.4610 O.2   209  LEU209     -0.2867
    163  CB       130.7050   56.3940   46.9470 C.3   209  LEU209      0.0270
    164  CG       130.2590   57.2390   48.1440 C.3   209  LEU209      0.0019
    165  CD1      129.3160   58.3360   47.6550 C.3   209  LEU209      0.0001
    166  CD2      129.5910   56.3870   49.2240 C.3   209  LEU209      0.0001
    167  N        130.1040   60.3550   41.7530 N.3   238  GLY238     -0.1210
    168  CA       129.0220   60.0210   42.6850 C.3   238  GLY238      0.1956
    169  C        129.2150   58.6800   43.3690 C.2   238  GLY238      0.2612
    170  O        130.2920   58.3850   43.8750 O.2   238  GLY238     -0.2717
    171  N        128.1650   57.8650   43.3650 N.am  239  SER239     -0.1952
    172  CA       128.2430   56.4970   43.8560 C.3   239  SER239      0.1924
    173  C        128.3230   55.5260   42.6810 C.2   239  SER239      0.2314
    174  O        127.8280   54.4030   42.7540 O.2   239  SER239     -0.2863
    175  CB       127.0160   56.1910   44.7220 C.3   239  SER239      0.2116
    176  OG       125.8170   56.5650   44.0560 O.3   239  SER239     -0.2180
@<TRIPOS>BOND
     1     1     2    1
     2     4     3    2
     3     2     3    1
     4     2     5    1
     5    86    87    2
     6    86    85    1
     7    80    81    1
     8     5     6    1
     9    84    85    1
    10    82    83    2
    11    82    81    1
    12     6     7    1
    13    88    89    1
    14    90    91    2
    15    90    89    1
    16     7     8    1
    17    10    11    1
    18    72    73    1
    19    13    12    2
    20    89    92    1
    21     8     9    1
    22    74    73    1
    23    74    75    2
    24    62    63    2
    25    62    61    1
    26    12    11    1
    27    73    76    1
    28    76    77    1
    29    11    14    1
    30   167   168    1
    31    92    93    1
    32    77    78    1
    33    77    79    1
    34    61    64    1
    35    61    60    1
    36   173   174    2
    37   173   172    1
    38   168   169    1
    39    16    15    2
    40    14    15    1
    41    64    65    1
    42    15    17   am
    43   171   169   am
    44   171   172    1
    45   169   170    2
    46    66    65   ar
    47    66    68   ar
    48   120   118   ar
    49   172   175    1
    50   116   115    2
    51    65    67   ar
    52   176   175    1
    53   135   134    1
    54   117   118    1
    55   117   114    1
    56    68    70   ar
    57   118   119   ar
    58   115   114    1
    59   130   131    1
    60   107   106    1
    61    67    69   ar
    62   114   113    1
    63   162   161    2
    64   106   103    1
    65   134   131    1
    66   134   136    1
    67    70    69   ar
    68    70    71    1
    69   131   132    1
    70   161   160    1
    71   100    98    1
    72   113   110   am
    73    18    19    1
    74   101    99    1
    75   163   160    1
    76   163   164    1
    77    22    19    1
    78    22    23    1
    79   103   104    1
    80   103   102    1
    81   160   159    1
    82    98    99    1
    83    98    95    1
    84    24    23    1
    85   132   137   am
    86   132   133    2
    87   105   104    2
    88    19    20    1
    89   104   108   am
    90    97    96    2
    91   102    96   am
    92   137   138    1
    93   110   111    2
    94   110   109    1
    95   165   164    1
    96    96    95    1
    97    23    25    1
    98   164   166    1
    99   108   109    1
   100    95    94    1
   101    21    20    2
   102   109   112    1
   103   138   139    1
   104   149   147   ar
   105   149   151   ar
   106   139   140    2
   107   152   151    1
   108   147   146   ar
   109   141   142    1
   110   151   150   ar
   111    59    57    1
   112   146   145    1
   113   146   148   ar
   114   124   123    2
   115   150   148   ar
   116   142   145    1
   117   142   143    1
   118    57    56    1
   119   123   122    1
   120    56    58    1
   121    56    53    1
   122   153   143   am
   123   153   154    1
   124    41    40    1
   125   143   144    2
   126    39    40   ar
   127    39    37   ar
   128    54    53    1
   129    54    55    2
   130   158   157    1
   131   157   154    1
   132    40    38   ar
   133    37    35   ar
   134   154   155    1
   135   122   125    1
   136   122   121    1
   137    53    52    1
   138   125   126    1
   139   155   156    2
   140    38    36   ar
   141    35    36   ar
   142    35    34    1
   143    48    50   ar
   144    48    47   ar
   145    45    44    2
   146   126   127    1
   147    46    47    1
   148    46    43    1
   149    50    51   ar
   150   127   128    1
   151    47    49   ar
   152    34    31    1
   153    42    43    1
   154    42    32   am
   155   128   129    1
   156    44    43    1
   157    31    32    1
   158    31    30    1
   159    51    49   ar
   160    29    28    2
   161    32    33    2
   162    30    28   am
   163    28    27    1
   164    27    26    1
