@<TRIPOS>MOLECULE
tmp/2v30A00.pdb
 184 172 0 0 0
SMALL
GASTEIGER

@<TRIPOS>ATOM
      1  N          2.8560   66.3270   16.1740 N.3    40  SER40      -0.1217
      2  CA         3.0530   65.4330   17.3150 C.3    40  SER40       0.1889
      3  C          1.9980   65.8100   18.3510 C.2    40  SER40       0.2288
      4  O          2.1540   66.7720   19.0960 O.2    40  SER40      -0.2866
      5  CB         4.4690   65.5620   17.8770 C.3    40  SER40       0.2089
      6  OG         4.7000   64.6210   18.8930 O.3    40  SER40      -0.2183
      7  N          0.7920   65.5040   21.3070 N.3    42  ASP42      -0.1239
      8  CA         1.2210   65.0030   22.6180 C.3    42  ASP42       0.1674
      9  C          0.3210   65.5380   23.7140 C.2    42  ASP42       0.2266
     10  O          0.7310   66.3750   24.5160 O.2    42  ASP42      -0.2867
     11  CB         2.6770   65.3860   22.8640 C.3    42  ASP42       0.1410
     12  CG         3.6370   64.6510   21.9310 C.2    42  ASP42       0.3668
     13  OD1        3.2900   63.5210   21.4960 O.co2  42  ASP42      -0.2456
     14  OD2        4.7270   65.1930   21.6440 O.co2  42  ASP42      -0.2456
     15  N          1.2030   62.1260   14.6110 N.3    64  LYS64      -0.1245
     16  CA         1.9500   61.2210   15.4320 C.3    64  LYS64       0.1561
     17  C          1.3290   61.2040   16.8310 C.2    64  LYS64       0.2260
     18  O          1.1600   62.2450   17.4580 O.2    64  LYS64      -0.2867
     19  CB         3.4200   61.6430   15.5030 C.3    64  LYS64       0.0271
     20  CG         4.2880   60.7150   16.3190 C.3    64  LYS64       0.0035
     21  CD         5.7460   61.1410   16.3110 C.3    64  LYS64       0.0206
     22  CE         6.0140   62.2180   17.3200 C.3    64  LYS64       0.1093
     23  NZ         5.7740   61.7830   18.7190 N.3    64  LYS64      -0.1314
     24  N          1.0490   59.4070   20.8470 N.3    66  HIS66      -0.1241
     25  CA         1.6260   58.6680   21.9690 C.3    66  HIS66       0.1621
     26  C          0.4160   58.2060   22.7710 C.2    66  HIS66       0.2264
     27  O          0.0230   58.8450   23.7560 O.2    66  HIS66      -0.2867
     28  CB         2.5070   59.5590   22.8740 C.3    66  HIS66       0.0745
     29  CG         3.9280   59.7200   22.4300 C.ar   66  HIS66       0.0817
     30  ND1        4.7690   58.6550   22.1920 N.ar   66  HIS66      -0.2268
     31  CD2        4.6820   60.8310   22.2710 C.ar   66  HIS66       0.1154
     32  CE1        5.9670   59.1040   21.8680 C.ar   66  HIS66       0.1986
     33  NE2        5.9410   60.4210   21.9010 N.ar   66  HIS66      -0.2212
     34  N          4.0280   56.5250   17.8730 N.3    95  ASP95      -0.1239
     35  CA         5.4460   56.6860   18.2080 C.3    95  ASP95       0.1674
     36  C          5.7630   55.8020   19.4170 C.2    95  ASP95       0.2266
     37  O          6.1600   56.2900   20.4790 O.2    95  ASP95      -0.2867
     38  CB         5.7020   58.1660   18.5240 C.3    95  ASP95       0.1410
     39  CG         7.2040   58.5170   18.6730 C.2    95  ASP95       0.3668
     40  OD1        8.0690   57.6250   18.5560 O.co2  95  ASP95      -0.2456
     41  OD2        7.5040   59.7020   18.9160 O.co2  95  ASP95      -0.2456
     42  N          8.1100   53.3580   19.7340 N.3    97  LYS97      -0.1245
     43  CA         9.5240   53.0500   19.9600 C.3    97  LYS97       0.1561
     44  C          9.7070   51.6360   20.4780 C.2    97  LYS97       0.2260
     45  O         10.3280   51.4150   21.5300 O.2    97  LYS97      -0.2867
     46  CB        10.1860   54.0900   20.9040 C.3    97  LYS97       0.0271
     47  CG        10.1370   55.4790   20.3410 C.3    97  LYS97       0.0035
     48  CD        10.8720   56.4950   21.1520 C.3    97  LYS97       0.0206
     49  CE        11.2300   57.7100   20.2930 C.3    97  LYS97       0.1093
     50  NZ        10.0240   58.5080   19.9900 N.3    97  LYS97      -0.1314
     51  N          7.2030   52.8650   14.8700 N.3   124  ASN124     -0.1240
     52  CA         8.6590   52.9480   14.8280 C.3   124  ASN124      0.1653
     53  C          9.3170   51.9910   15.8010 C.2   124  ASN124      0.2266
     54  O          8.6810   51.4700   16.7230 O.2   124  ASN124     -0.2867
     55  CB         9.1780   54.3970   15.0260 C.3   124  ASN124      0.1155
     56  CG         8.7800   55.0180   16.3680 C.2   124  ASN124      0.2627
     57  OD1        7.9750   54.4790   17.1130 O.2   124  ASN124     -0.2716
     58  ND2        9.3410   56.1840   16.6610 N.am  124  ASN124     -0.0877
     59  N         14.5930   54.0720   14.0860 N.3   151  ILE151     -0.1245
     60  CA        15.1630   55.2400   14.7110 C.3   151  ILE151      0.1561
     61  C         16.6740   55.1850   14.5060 C.2   151  ILE151      0.2260
     62  O         17.4030   54.4220   15.1810 O.2   151  ILE151     -0.2867
     63  CB        14.7430   55.3710   16.1950 C.3   151  ILE151      0.0252
     64  CG1       13.2170   55.4730   16.3060 C.3   151  ILE151      0.0019
     65  CG2       15.3910   56.5800   16.8580 C.3   151  ILE151      0.0019
     66  CD1       12.6890   55.0950   17.7270 C.3   151  ILE151      0.0001
     67  N         18.7070   58.1410   14.1420 N.3   153  GLU153     -0.1231
     68  CA        19.3030   59.2630   14.9020 C.3   153  GLU153      0.1699
     69  C         18.2270   59.7970   15.8180 C.2   153  GLU153      0.2592
     70  O         17.0490   59.6290   15.5220 O.2   153  GLU153     -0.2718
     71  CB        19.7680   60.3940   13.9770 C.3   153  GLU153      0.0402
     72  CG        20.7830   59.9770   12.9190 C.3   153  GLU153      0.1161
     73  CD        21.2340   61.1460   12.0290 C.2   153  GLU153      0.3649
     74  OE1       20.4020   62.0130   11.6750 O.co2 153  GLU153     -0.2457
     75  OE2       22.4240   61.1650   11.6490 O.co2 153  GLU153     -0.2457
     76  N         18.6280   60.4020   16.9390 N.am  154  MET154     -0.1965
     77  CA        17.7150   61.1090   17.8370 C.3   154  MET154      0.1736
     78  C         18.1030   62.5850   18.0060 C.2   154  MET154      0.2617
     79  O         19.2690   62.9850   17.7910 O.2   154  MET154     -0.2715
     80  CB        17.6400   60.4160   19.2080 C.3   154  MET154      0.0427
     81  CG        17.1130   59.0090   19.1230 C.3   154  MET154      0.0599
     82  SD        16.6420   58.3040   20.7370 S.3   154  MET154     -0.1393
     83  CE        15.2180   59.2760   21.1450 C.3   154  MET154      0.0692
     84  N         17.1170   63.3900   18.3920 N.am  155  SER155     -0.1936
     85  CA        17.2780   64.8540   18.4470 C.3   155  SER155      0.2055
     86  C         17.8600   65.3400   19.7700 C.2   155  SER155      0.2643
     87  O         18.1660   66.5300   19.9200 O.2   155  SER155     -0.2714
     88  CB        15.9340   65.5430   18.2170 C.3   155  SER155      0.2130
     89  OG        14.9970   65.2120   19.2380 O.3   155  SER155     -0.2179
     90  N         18.0240   64.4270   20.7250 N.am  156  SER156     -0.1949
     91  CA        18.2690   64.8160   22.0990 C.3   156  SER156      0.1924
     92  C         19.7700   64.8620   22.4010 C.2   156  SER156      0.2314
     93  O         20.5670   64.2000   21.7530 O.2   156  SER156     -0.2863
     94  CB        17.5160   63.8780   23.0690 C.3   156  SER156      0.2116
     95  OG        17.6560   62.5190   22.6860 O.3   156  SER156     -0.2180
     96  N         13.3250   57.6820   11.4000 N.3   184  ILE184     -0.1245
     97  CA        13.3720   58.8310   12.2700 C.3   184  ILE184      0.1561
     98  C         14.8390   59.1980   12.3280 C.2   184  ILE184      0.2260
     99  O         15.6790   58.3810   12.7100 O.2   184  ILE184     -0.2867
    100  CB        12.8410   58.5050   13.6880 C.3   184  ILE184      0.0252
    101  CG1       11.4080   57.9790   13.6060 C.3   184  ILE184      0.0019
    102  CG2       12.9370   59.7340   14.5920 C.3   184  ILE184      0.0019
    103  CD1       10.4170   59.0420   13.1970 C.3   184  ILE184      0.0001
    104  N         12.1430   64.8870   14.0680 N.3   200  PRO200     -0.2102
    105  CA        11.6460   65.6340   15.2250 C.3   200  PRO200      0.1504
    106  C         12.7690   66.5420   15.7500 C.2   200  PRO200      0.2576
    107  O         13.8890   66.5020   15.2380 O.2   200  PRO200     -0.2718
    108  CB        11.3210   64.5290   16.2240 C.3   200  PRO200      0.0282
    109  CG        12.4350   63.5320   16.0020 C.3   200  PRO200      0.0208
    110  CD        12.7620   63.6160   14.4910 C.3   200  PRO200      0.0893
    111  N         12.4750   67.3440   16.7620 N.am  201  GLY201     -0.1943
    112  CA        13.4550   68.3190   17.2580 C.3   201  GLY201      0.2014
    113  C         13.4510   69.5310   16.3320 C.2   201  GLY201      0.2638
    114  O         14.5120   69.9980   15.8880 O.2   201  GLY201     -0.2714
    115  N         12.2560   70.0420   16.0480 N.am  202  VAL202     -0.1977
    116  CA        12.0660   71.1430   15.0960 C.3   202  VAL202      0.1596
    117  C         11.2230   72.2440   15.7460 C.2   202  VAL202      0.2287
    118  O         10.1430   71.9900   16.2820 O.2   202  VAL202     -0.2864
    119  CB        11.4010   70.6500   13.7770 C.3   202  VAL202      0.0276
    120  CG1       11.0040   71.8460   12.8430 C.3   202  VAL202      0.0022
    121  CG2       12.3120   69.6480   13.0540 C.3   202  VAL202      0.0022
    122  N         15.9500   67.9930   24.9100 N.3   213  GLN213     -0.1245
    123  CA        15.4830   68.2240   23.5420 C.3   213  GLN213      0.1566
    124  C         16.3220   69.3260   22.8990 C.2   213  GLN213      0.2260
    125  O         16.7240   70.2860   23.5640 O.2   213  GLN213     -0.2867
    126  CB        13.9940   68.6110   23.5120 C.3   213  GLN213      0.0367
    127  CG        13.3840   68.8240   22.1290 C.3   213  GLN213      0.0905
    128  CD        13.4640   67.6060   21.2100 C.2   213  GLN213      0.2608
    129  OE1       14.5340   67.0260   21.0170 O.2   213  GLN213     -0.2717
    130  NE2       12.3220   67.2290   20.6180 N.am  213  GLN213     -0.0878
    131  N         16.2700   71.8010   19.2580 N.3   215  TYR215     -0.1241
    132  CA        15.4620   72.2510   18.1280 C.3   215  TYR215      0.1605
    133  C         16.3160   72.8900   17.0310 C.2   215  TYR215      0.2264
    134  O         17.2540   73.6490   17.3200 O.2   215  TYR215     -0.2867
    135  CB        14.3950   73.2520   18.5800 C.3   215  TYR215      0.0534
    136  CG        13.3740   72.6630   19.5130 C.ar  215  TYR215     -0.0201
    137  CD1       12.5460   71.6190   19.0950 C.ar  215  TYR215     -0.0009
    138  CD2       13.2330   73.1270   20.8130 C.ar  215  TYR215     -0.0009
    139  CE1       11.6030   71.0640   19.9310 C.ar  215  TYR215      0.0417
    140  CE2       12.2980   72.5680   21.6740 C.ar  215  TYR215      0.0417
    141  CZ        11.4820   71.5230   21.2270 C.ar  215  TYR215      0.1957
    142  OH        10.5330   70.9740   22.0600 O.3   215  TYR215     -0.2866
    143  N          8.6090   66.8450   12.2800 N.3   231  ILE231     -0.1231
    144  CA         7.7130   66.4130   13.3530 C.3   231  ILE231      0.1692
    145  C          7.7710   67.5190   14.4110 C.2   231  ILE231      0.2592
    146  O          8.8620   67.7990   14.9910 O.2   231  ILE231     -0.2718
    147  CB         8.1370   65.0780   13.9710 C.3   231  ILE231      0.0266
    148  CG1        8.0930   63.9240   12.9520 C.3   231  ILE231      0.0019
    149  CG2        7.2580   64.7580   15.2180 C.3   231  ILE231      0.0020
    150  CD1        8.8910   62.6850   13.4120 C.3   231  ILE231      0.0001
    151  N          6.6110   68.1580   14.6340 N.am  232  VAL232     -0.1966
    152  CA         6.4940   69.2940   15.5500 C.3   232  VAL232      0.1727
    153  C          5.4060   69.0520   16.5940 C.2   232  VAL232      0.2617
    154  O          4.2200   68.8500   16.2600 O.2   232  VAL232     -0.2715
    155  CB         6.1840   70.6130   14.7760 C.3   232  VAL232      0.0290
    156  CG1        6.1170   71.8230   15.7410 C.3   232  VAL232      0.0023
    157  CG2        7.2460   70.8460   13.6720 C.3   232  VAL232      0.0023
    158  N          5.8200   69.0850   17.8600 N.am  233  GLY233     -0.1940
    159  CA         4.9000   69.0690   19.0010 C.3   233  GLY233      0.2014
    160  C          4.5920   70.4490   19.5710 C.2   233  GLY233      0.2639
    161  O          3.7030   71.1810   19.0760 O.2   233  GLY233     -0.2714
    162  N          5.3430   70.7940   20.6100 N.am  234  ARG234     -0.1963
    163  CA         5.1580   72.0150   21.3930 C.3   234  ARG234      0.1729
    164  C          5.1650   73.3020   20.5750 C.2   234  ARG234      0.2616
    165  O          4.4220   74.2190   20.8850 O.2   234  ARG234     -0.2715
    166  CB         6.1930   72.0870   22.5190 C.3   234  ARG234      0.0348
    167  CG         5.8290   71.1830   23.6830 C.3   234  ARG234      0.0492
    168  CD         6.9620   70.9800   24.6500 C.3   234  ARG234      0.2205
    169  NE         7.9630   70.0640   24.1210 N.pl3 234  ARG234     -0.0865
    170  CZ         9.0650   69.6920   24.7580 C.cat 234  ARG234      0.5346
    171  NH1        9.3640   70.2120   25.9400 N.pl3 234  ARG234      0.1354
    172  NH2        9.9090   68.8390   24.1830 N.pl3 234  ARG234      0.1354
    173  N          5.9570   73.3440   19.5080 N.am  235  GLY235     -0.1955
    174  CA         5.9380   74.4680   18.5850 C.3   235  GLY235      0.1869
    175  C          4.5670   74.8250   18.0610 C.2   235  GLY235      0.2309
    176  O          4.3000   75.9930   17.7730 O.2   235  GLY235     -0.2863
    177  N          1.4720   72.8400   19.5300 N.3   237  ILE237     -0.1245
    178  CA         0.4450   72.5530   20.5570 C.3   237  ILE237      0.1561
    179  C          0.5560   73.4540   21.8130 C.2   237  ILE237      0.2260
    180  O         -0.3950   73.5620   22.5740 O.2   237  ILE237     -0.2867
    181  CB         0.3950   71.0430   20.9820 C.3   237  ILE237      0.0252
    182  CG1        1.6320   70.6630   21.7960 C.3   237  ILE237      0.0019
    183  CG2        0.2130   70.1310   19.7610 C.3   237  ILE237      0.0019
    184  CD1        1.7000   69.1910   22.2390 C.3   237  ILE237      0.0001
@<TRIPOS>BOND
     1    96    97    1
     2    75    73   ar
     3    74    73   ar
     4    73    72    1
     5    97    98    1
     6    97   100    1
     7   143   144    1
     8    98    99    2
     9   120   119    1
    10    72    71    1
    11   148   150    1
    12   148   147    1
    13   121   119    1
    14   103   101    1
    15   144   147    1
    16   144   145    1
    17   101   100    1
    18   157   155    1
    19   100   102    1
    20   119   116    1
    21   147   149    1
    22    71    68    1
    23   104   110    1
    24   104   105    1
    25    59    60    1
    26    67    68    1
    27   145   151   am
    28   145   146    2
    29   110   109    1
    30    61    60    1
    31    61    62    2
    32    15    16    1
    33   151   152    1
    34    60    63    1
    35   155   152    1
    36   155   156    1
    37    52    51    1
    38    52    55    1
    39    52    53    1
    40    68    69    1
    41    55    56    1
    42   116   117    1
    43   116   115    1
    44   105   106    1
    45   105   108    1
    46   107   106    2
    47    16    19    1
    48    16    17    1
    49    19    20    1
    50    70    69    2
    51   152   153    1
    52   117   118    2
    53   106   111   am
    54    53    54    2
    55    69    76   am
    56   114   113    2
    57   109   108    1
    58   115   113   am
    59     1     2    1
    60    63    64    1
    61    63    65    1
    62   154   153    2
    63    64    66    1
    64    21    20    1
    65    21    22    1
    66   113   112    1
    67    56    58   am
    68    56    57    2
    69   153   158   am
    70   111   112    1
    71    17    18    2
    72    76    77    1
    73   133   134    2
    74   133   132    1
    75     2     5    1
    76     2     3    1
    77    22    23    1
    78   176   175    2
    79    79    78    2
    80    77    78    1
    81    77    80    1
    82   158   159    1
    83    34    35    1
    84     5     6    1
    85    78    84   am
    86   175   174    1
    87   132   135    1
    88   132   131    1
    89    35    38    1
    90    35    36    1
    91    88    85    1
    92    88    89    1
    93     3     4    2
    94    84    85    1
    95    85    86    1
    96    38    39    1
    97    40    39   ar
    98   135   136    1
    99   174   173    1
   100    39    41   ar
   101   159   160    1
   102   161   160    2
   103   137   136   ar
   104   137   139   ar
   105    81    80    1
   106    81    82    1
   107    36    37    2
   108   173   164   am
   109   136   138   ar
   110   177   178    1
   111   160   162   am
   112    42    43    1
   113   183   181    1
   114    86    87    2
   115    86    90   am
   116   139   141   ar
   117    43    44    1
   118    43    46    1
   119    50    49    1
   120    49    48    1
   121    47    46    1
   122    47    48    1
   123    44    45    2
   124   178   181    1
   125   178   179    1
   126   164   165    2
   127   164   163    1
   128   162   163    1
   129   130   128   am
   130    90    91    1
   131    82    83    1
   132   138   140   ar
   133    24    25    1
   134   181   182    1
   135   129   128    2
   136   128   127    1
   137   141   140   ar
   138   141   142    1
   139     7     8    1
   140   163   166    1
   141    13    12   ar
   142    14    12   ar
   143    93    92    2
   144   182   184    1
   145   179   180    2
   146    32    33   ar
   147    32    30   ar
   148    33    31   ar
   149    12    11    1
   150    25    26    1
   151    25    28    1
   152    91    92    1
   153    91    94    1
   154   127   126    1
   155    30    29   ar
   156    31    29   ar
   157    29    28    1
   158   166   167    1
   159     8    11    1
   160     8     9    1
   161    95    94    1
   162    26    27    2
   163   124   123    1
   164   124   125    2
   165   126   123    1
   166   123   122    1
   167   167   168    1
   168     9    10    2
   169   169   168    1
   170   169   170    2
   171   172   170    1
   172   170   171    1
