@<TRIPOS>MOLECULE
tmp/2v34B01.pdb
 129 122 0 0 0
SMALL
GASTEIGER

@<TRIPOS>ATOM
      1  N         88.2950    2.4490   22.8610 N.3    11  LYS11      -0.1245
      2  CA        88.3400    3.9110   22.8110 C.3    11  LYS11       0.1561
      3  C         88.9700    4.3910   21.5120 C.2    11  LYS11       0.2260
      4  O         89.6070    3.6190   20.7900 O.2    11  LYS11      -0.2867
      5  CB        89.0510    4.5420   24.0380 C.3    11  LYS11       0.0271
      6  CG        90.5000    4.1040   24.2930 C.3    11  LYS11       0.0035
      7  CD        91.5260    4.7080   23.3210 C.3    11  LYS11       0.0206
      8  CE        92.9210    4.2120   23.6440 C.3    11  LYS11       0.1093
      9  NZ        93.9220    4.5320   22.5960 N.3    11  LYS11      -0.1314
     10  N         91.3110    8.0770   20.4890 N.3    13  ASN13      -0.1240
     11  CA        91.8190    9.3920   20.8660 C.3    13  ASN13       0.1653
     12  C         91.3080   10.4170   19.8740 C.2    13  ASN13       0.2266
     13  O         91.5400   10.2930   18.6700 O.2    13  ASN13      -0.2867
     14  CB        93.3480    9.4100   20.9040 C.3    13  ASN13       0.1155
     15  CG        93.9070    8.3990   21.8710 C.2    13  ASN13       0.2627
     16  OD1       94.2050    7.2690   21.4920 O.2    13  ASN13      -0.2716
     17  ND2       94.0220    8.7880   23.1370 N.am   13  ASN13      -0.0877
     18  N         95.7860   13.7740   20.2880 N.3    16  LEU16      -0.1245
     19  CA        96.8090   13.4490   21.2810 C.3    16  LEU16       0.1561
     20  C         98.0470   14.3300   21.0610 C.2    16  LEU16       0.2260
     21  O         98.4790   14.5440   19.9250 O.2    16  LEU16      -0.2867
     22  CB        97.1790   11.9560   21.2370 C.3    16  LEU16       0.0270
     23  CG        98.1100   11.4000   22.3330 C.3    16  LEU16       0.0019
     24  CD1       97.7750    9.9520   22.6610 C.3    16  LEU16       0.0001
     25  CD2       99.5780   11.5260   21.9550 C.3    16  LEU16       0.0001
     26  N         88.2780   -6.3720   19.3300 N.3    89  ILE89      -0.1231
     27  CA        89.1780   -5.2170   19.2170 C.3    89  ILE89       0.1678
     28  C         90.6030   -5.7090   18.9310 C.2    89  ILE89       0.2434
     29  O         91.2210   -6.3230   19.7960 O.2    89  ILE89      -0.2733
     30  CB        89.1780   -4.3640   20.5230 C.3    89  ILE89       0.0265
     31  CG1       87.7520   -3.9750   20.9310 C.3    89  ILE89       0.0019
     32  CG2       90.0740   -3.1270   20.3750 C.3    89  ILE89       0.0020
     33  CD1       87.6180   -3.5340   22.3920 C.3    89  ILE89       0.0001
     34  N         91.1260   -5.4490   17.7140 N.am   90  PRO90      -0.2718
     35  CA        92.4580   -5.9560   17.3520 C.3    90  PRO90       0.1520
     36  C         93.5880   -5.3420   18.1980 C.2    90  PRO90       0.2440
     37  O         93.5950   -4.1310   18.4330 O.2    90  PRO90      -0.2731
     38  CB        92.6030   -5.5520   15.8770 C.3    90  PRO90       0.0310
     39  CG        91.2030   -5.2870   15.4060 C.3    90  PRO90       0.0237
     40  CD        90.5120   -4.7030   16.6000 C.3    90  PRO90       0.0939
     41  N         94.5120   -6.1810   18.6970 N.am   91  PRO91      -0.2716
     42  CA        95.6810   -5.6510   19.4040 C.3    91  PRO91       0.1536
     43  C         96.5780   -4.8850   18.4340 C.2    91  PRO91       0.2599
     44  O         96.7600   -5.3180   17.2970 O.2    91  PRO91      -0.2715
     45  CB        96.3940   -6.9130   19.9060 C.3    91  PRO91       0.0310
     46  CG        95.3480   -8.0030   19.8520 C.3    91  PRO91       0.0237
     47  CD        94.5130   -7.6540   18.6640 C.3    91  PRO91       0.0939
     48  N         97.1150   -3.7510   18.8810 N.am   92  GLY92      -0.1941
     49  CA        97.9510   -2.9100   18.0330 C.3    92  GLY92       0.2014
     50  C         97.1570   -2.0280   17.0890 C.2    92  GLY92       0.2639
     51  O         97.6990   -1.5140   16.1090 O.2    92  GLY92      -0.2714
     52  N         95.8730   -1.8470   17.3840 N.am   93  ALA93      -0.1963
     53  CA        95.0010   -1.0140   16.5610 C.3    93  ALA93       0.1728
     54  C         94.8200    0.3980   17.1370 C.2    93  ALA93       0.2617
     55  O         94.1670    1.2450   16.5260 O.2    93  ALA93      -0.2715
     56  CB        93.6480   -1.6990   16.3550 C.3    93  ALA93       0.0334
     57  N         95.4050    0.6460   18.3080 N.am   94  GLY94      -0.1940
     58  CA        95.3320    1.9570   18.9550 C.3    94  GLY94       0.2014
     59  C         94.0220    2.2100   19.6720 C.2    94  GLY94       0.2639
     60  O         93.6670    3.3630   19.9350 O.2    94  GLY94      -0.2714
     61  N         93.3090    1.1350   20.0070 N.am   95  LEU95      -0.1963
     62  CA        91.9350    1.2550   20.5190 C.3    95  LEU95       0.1728
     63  C         91.7730    0.8850   22.0040 C.2    95  LEU95       0.2617
     64  O         90.6580    0.9100   22.5410 O.2    95  LEU95      -0.2715
     65  CB        90.9520    0.4730   19.6270 C.3    95  LEU95       0.0311
     66  CG        90.8960    0.7850   18.1150 C.3    95  LEU95       0.0022
     67  CD1       89.9340   -0.1670   17.4040 C.3    95  LEU95       0.0001
     68  CD2       90.5360    2.2440   17.8100 C.3    95  LEU95       0.0001
     69  N         92.8940    0.5720   22.6530 N.am   96  GLY96      -0.1940
     70  CA        92.9530    0.3410   24.0980 C.3    96  GLY96       0.2014
     71  C         92.2780   -0.9330   24.5760 C.2    96  GLY96       0.2639
     72  O         91.7180   -0.9660   25.6750 O.2    96  GLY96      -0.2714
     73  N         92.3410   -1.9770   23.7530 N.am   97  GLY97      -0.1939
     74  CA        91.6110   -3.2210   23.9980 C.3    97  GLY97       0.2014
     75  C         92.0400   -3.9500   25.2560 C.2    97  GLY97       0.2639
     76  O         91.2070   -4.2410   26.1180 O.2    97  GLY97      -0.2714
     77  N         93.3310   -4.2470   25.3530 N.am   98  GLY98      -0.1939
     78  CA        93.9230   -4.8390   26.5540 C.3    98  GLY98       0.2014
     79  C         93.6750   -4.0300   27.8170 C.2    98  GLY98       0.2639
     80  O         93.3350   -4.5980   28.8610 O.2    98  GLY98      -0.2714
     81  N         93.8180   -2.7040   27.7190 N.am   99  SER99      -0.1949
     82  CA        93.5620   -1.7980   28.8490 C.3    99  SER99       0.1924
     83  C         92.1000   -1.7940   29.2610 C.2    99  SER99       0.2314
     84  O         91.7750   -1.6620   30.4460 O.2    99  SER99      -0.2863
     85  CB        93.9950   -0.3660   28.5200 C.3    99  SER99       0.2116
     86  OG        95.3370   -0.3220   28.0870 O.3    99  SER99      -0.2180
     87  N         96.2870    3.7890   30.1170 N.3   132  ASP132     -0.1239
     88  CA        95.0040    3.8900   29.4100 C.3   132  ASP132      0.1674
     89  C         93.8420    3.2330   30.1610 C.2   132  ASP132      0.2266
     90  O         92.6750    3.5420   29.8960 O.2   132  ASP132     -0.2867
     91  CB        95.1050    3.2840   28.0060 C.3   132  ASP132      0.1410
     92  CG        95.9620    4.1080   27.0680 C.2   132  ASP132      0.3668
     93  OD1       95.8340    5.3520   27.0590 O.co2 132  ASP132     -0.2456
     94  OD2       96.7690    3.5100   26.3300 O.co2 132  ASP132     -0.2456
     95  N        100.4200   -2.1630   15.2430 N.3   171  SER171     -0.1217
     96  CA       101.3470   -1.1030   15.6340 C.3   171  SER171      0.1889
     97  C        101.8470   -1.2620   17.0710 C.2   171  SER171      0.2288
     98  O        101.0590   -1.4900   17.9960 O.2   171  SER171     -0.2866
     99  CB       100.6940    0.2640   15.4420 C.3   171  SER171      0.2089
    100  OG       101.5030    1.2870   15.9620 O.3   171  SER171     -0.2183
    101  N        103.1870    0.4440   20.2650 N.3   173  THR173     -0.1218
    102  CA       103.1880    1.7080   20.9900 C.3   173  THR173      0.1862
    103  C        104.5930    2.0950   21.4590 C.2   173  THR173      0.2287
    104  O        105.0090    3.2460   21.2980 O.2   173  THR173     -0.2866
    105  CB       102.2280    1.6260   22.1800 C.3   173  THR173      0.1770
    106  OG1      100.9970    1.0370   21.7370 O.3   173  THR173     -0.2211
    107  CG2      101.9530    3.0040   22.7630 C.3   173  THR173      0.0375
    108  N        101.7430   10.8920   17.2080 N.3   210  LEU210     -0.1245
    109  CA       102.0140    9.4490   17.2260 C.3   210  LEU210      0.1561
    110  C        101.5050    8.7680   15.9430 C.2   210  LEU210      0.2260
    111  O        102.0930    7.7910   15.4720 O.2   210  LEU210     -0.2867
    112  CB       101.4110    8.7820   18.4630 C.3   210  LEU210      0.0270
    113  CG       101.8120    9.2420   19.8680 C.3   210  LEU210      0.0019
    114  CD1      101.1040    8.3740   20.9030 C.3   210  LEU210      0.0001
    115  CD2      103.3330    9.2140   20.0710 C.3   210  LEU210      0.0001
    116  N         95.3010    6.5130   18.9630 N.3   239  GLY239     -0.1210
    117  CA        96.4690    6.0410   19.6940 C.3   239  GLY239      0.1956
    118  C         97.7400    6.2840   18.9170 C.2   239  GLY239      0.2613
    119  O         97.9610    7.3730   18.3970 O.2   239  GLY239     -0.2717
    120  N         98.5610    5.2470   18.8320 N.am  240  SER240     -0.1938
    121  CA        99.7780    5.2700   18.0430 C.3   240  SER240      0.2055
    122  C         99.6250    4.3900   16.7950 C.2   240  SER240      0.2643
    123  O        100.5580    3.6840   16.4100 O.2   240  SER240     -0.2714
    124  CB       100.9370    4.7560   18.8930 C.3   240  SER240      0.2130
    125  OG       100.6540    3.4520   19.3590 O.3   240  SER240     -0.2179
    126  N         98.4510    4.4410   16.1660 N.am  241  GLY241     -0.1954
    127  CA        98.1190    3.5090   15.0940 C.3   241  GLY241      0.1869
    128  C         97.6040    2.2040   15.6820 C.2   241  GLY241      0.2309
    129  O         97.7330    1.9740   16.8910 O.2   241  GLY241     -0.2863
@<TRIPOS>BOND
     1   127   128    1
     2   127   126    1
     3    95    96    1
     4    39    38    1
     5    39    40    1
     6    99    96    1
     7    99   100    1
     8   111   110    2
     9    96    97    1
    10   128   129    2
    11    38    35    1
    12   110   109    1
    13    51    50    2
    14   126   122   am
    15    56    53    1
    16   123   122    2
    17    55    54    2
    18    53    54    1
    19    53    52    1
    20    40    34    1
    21   122   121    1
    22    97    98    2
    23    50    52   am
    24    50    49    1
    25    54    57   am
    26   108   109    1
    27   109   112    1
    28    44    43    2
    29    35    34    1
    30    35    36    1
    31    67    66    1
    32    34    28   am
    33    68    66    1
    34    49    48    1
    35   121   120    1
    36   121   124    1
    37    66    65    1
    38    36    37    2
    39    36    41   am
    40    57    58    1
    41   119   118    2
    42    43    48   am
    43    43    42    1
    44   112   113    1
    45    47    41    1
    46    47    46    1
    47    13    12    2
    48    41    42    1
    49   120   118   am
    50   124   125    1
    51   118   117    1
    52    28    27    1
    53    28    29    2
    54    58    59    1
    55   116   117    1
    56    27    26    1
    57    27    30    1
    58    42    45    1
    59    65    62    1
    60    59    60    2
    61    59    61   am
    62    46    45    1
    63   113   115    1
    64   113   114    1
    65    12    11    1
    66    21    20    2
    67    61    62    1
    68   101   102    1
    69    18    19    1
    70    32    30    1
    71    10    11    1
    72    62    63    1
    73    30    31    1
    74     4     3    2
    75    11    14    1
    76    14    15    1
    77    31    33    1
    78   102   103    1
    79   102   105    1
    80    20    19    1
    81    22    19    1
    82    22    23    1
    83   104   103    2
    84    16    15    2
    85     3     2    1
    86   106   105    1
    87    15    17   am
    88    25    23    1
    89    63    64    2
    90    63    69   am
    91   105   107    1
    92    23    24    1
    93     9     8    1
    94    69    70    1
    95     2     1    1
    96     2     5    1
    97     7     8    1
    98     7     6    1
    99    73    74    1
   100    73    71   am
   101    74    75    1
   102     5     6    1
   103    70    71    1
   104    71    72    2
   105    75    77   am
   106    75    76    2
   107    77    78    1
   108    94    92   ar
   109    78    79    1
   110    93    92   ar
   111    92    91    1
   112    81    79   am
   113    81    82    1
   114    79    80    2
   115    91    88    1
   116    86    85    1
   117    85    82    1
   118    82    83    1
   119    83    84    2
   120    88    87    1
   121    88    89    1
   122    90    89    2
