@<TRIPOS>MOLECULE
tmp/2v34A00.pdb
 85 82 0 0 0
SMALL
GASTEIGER

@<TRIPOS>ATOM
      1  N         93.5810   50.9210   24.9030 N.3    24  GLY24      -0.1210
      2  CA        92.5200   50.7500   23.9130 C.3    24  GLY24       0.1956
      3  C         92.9560   49.8700   22.7550 C.2    24  GLY24       0.2612
      4  O         92.1250   49.3540   22.0070 O.2    24  GLY24      -0.2717
      5  N         94.2650   49.6850   22.6130 N.am   25  TYR25      -0.1962
      6  CA        94.7920   48.7840   21.6040 C.3    25  TYR25       0.1771
      7  C         94.7270   47.3280   22.0790 C.2    25  TYR25       0.2619
      8  O         94.2010   47.0350   23.1500 O.2    25  TYR25      -0.2715
      9  CB        96.2110   49.1930   21.2140 C.3    25  TYR25       0.0574
     10  CG        96.2700   50.4600   20.3940 C.ar   25  TYR25      -0.0198
     11  CD1       96.3450   51.7100   21.0140 C.ar   25  TYR25      -0.0009
     12  CD2       96.2540   50.4150   18.9990 C.ar   25  TYR25      -0.0009
     13  CE1       96.3950   52.8830   20.2690 C.ar   25  TYR25       0.0417
     14  CE2       96.3080   51.5870   18.2390 C.ar   25  TYR25       0.0417
     15  CZ        96.3770   52.8180   18.8840 C.ar   25  TYR25       0.1957
     16  OH        96.4280   53.9910   18.1550 O.3    25  TYR25      -0.2866
     17  N         95.2400   46.4170   21.2600 N.am   26  HIS26      -0.1973
     18  CA        95.1940   44.9930   21.5700 C.3    26  HIS26       0.1656
     19  C         96.5650   44.4000   21.4110 C.2    26  HIS26       0.2291
     20  O         97.3050   44.7960   20.5080 O.2    26  HIS26      -0.2864
     21  CB        94.2140   44.2690   20.6400 C.3    26  HIS26       0.0771
     22  CG        92.7780   44.4950   20.9900 C.ar   26  HIS26       0.0820
     23  ND1       92.0660   45.5890   20.5440 N.ar   26  HIS26      -0.2267
     24  CD2       91.9190   43.7670   21.7430 C.ar   26  HIS26       0.1154
     25  CE1       90.8320   45.5240   21.0090 C.ar   26  HIS26       0.1986
     26  NE2       90.7160   44.4270   21.7370 N.ar   26  HIS26      -0.2212
     27  N         98.7860   41.4250   20.1830 N.3    28  ILE28      -0.1245
     28  CA        98.5930   40.4890   19.0860 C.3    28  ILE28       0.1561
     29  C         99.8690   39.7080   18.7730 C.2    28  ILE28       0.2260
     30  O        100.9560   40.0600   19.2150 O.2    28  ILE28      -0.2867
     31  CB        98.0950   41.2110   17.7830 C.3    28  ILE28       0.0252
     32  CG1       99.1820   42.1440   17.2280 C.3    28  ILE28       0.0019
     33  CG2       96.7890   41.9600   18.0340 C.3    28  ILE28       0.0019
     34  CD1       98.9070   42.6650   15.8270 C.3    28  ILE28       0.0001
     35  N        100.8260   51.0320   14.0120 N.3   130  ALA130     -0.1231
     36  CA       101.5530   49.8350   14.4760 C.3   130  ALA130      0.1694
     37  C        102.0640   48.9480   13.3300 C.2   130  ALA130      0.2592
     38  O        103.0680   48.2460   13.4840 O.2   130  ALA130     -0.2718
     39  CB       100.6960   49.0090   15.4550 C.3   130  ALA130      0.0304
     40  N        101.3740   48.9900   12.1900 N.am  131  ASP131     -0.1974
     41  CA       101.7850   48.2550   10.9920 C.3   131  ASP131      0.1709
     42  C        102.9500   48.9020   10.2240 C.2   131  ASP131      0.2293
     43  O        103.5800   48.2460    9.3820 O.2   131  ASP131     -0.2864
     44  CB       100.5870   48.0440   10.0510 C.3   131  ASP131      0.1436
     45  CG        99.5340   47.0910   10.6260 C.2   131  ASP131      0.3671
     46  OD1       99.8910   46.1710   11.4020 O.co2 131  ASP131     -0.2456
     47  OD2       98.3380   47.2600   10.2930 O.co2 131  ASP131     -0.2456
     48  N        101.8640   45.1950   19.6220 N.3   146  LYS146     -0.1245
     49  CA       100.7250   45.6260   18.7990 C.3   146  LYS146      0.1561
     50  C        101.0060   45.3980   17.3130 C.2   146  LYS146      0.2260
     51  O        100.1970   45.7520   16.4590 O.2   146  LYS146     -0.2867
     52  CB       100.3710   47.0900   19.0720 C.3   146  LYS146      0.0271
     53  CG        99.7980   47.3290   20.4640 C.3   146  LYS146      0.0035
     54  CD        99.5350   48.8080   20.7140 C.3   146  LYS146      0.0206
     55  CE       100.8140   49.5980   20.9890 C.3   146  LYS146      0.1093
     56  NZ       101.3620   49.3040   22.3530 N.3   146  LYS146     -0.1314
     57  N         89.3330   48.6520   10.7890 N.3   172  THR172     -0.1203
     58  CA        90.1970   47.8920   11.7010 C.3   172  THR172      0.1994
     59  C         89.7740   48.1170   13.1550 C.2   172  THR172      0.2618
     60  O         89.7980   47.1930   13.9590 O.2   172  THR172     -0.2717
     61  CB        91.7030   48.2440   11.5040 C.3   172  THR172      0.1784
     62  OG1       92.0660   48.0830   10.1290 O.3   172  THR172     -0.2211
     63  CG2       92.5960   47.3350   12.3400 C.3   172  THR172      0.0376
     64  N         89.3720   49.3500   13.4620 N.am  173  GLY173     -0.1956
     65  CA        88.8450   49.7220   14.7690 C.3   173  GLY173      0.1869
     66  C         87.5320   49.0610   15.1320 C.2   173  GLY173      0.2309
     67  O         87.3910   48.5670   16.2440 O.2   173  GLY173     -0.2863
     68  N         88.3060   45.1560   15.6810 N.3   176  TYR176     -0.1227
     69  CA        89.0090   44.9640   16.9630 C.3   176  TYR176      0.1736
     70  C         88.0830   45.1780   18.1530 C.2   176  TYR176      0.2596
     71  O         88.2150   44.4970   19.1660 O.2   176  TYR176     -0.2718
     72  CB        90.2460   45.8710   17.0900 C.3   176  TYR176      0.0548
     73  CG        91.5520   45.2430   16.6360 C.ar  176  TYR176     -0.0200
     74  CD1       92.1610   45.6520   15.4590 C.ar  176  TYR176     -0.0009
     75  CD2       92.1760   44.2430   17.3830 C.ar  176  TYR176     -0.0009
     76  CE1       93.3560   45.0940   15.0240 C.ar  176  TYR176      0.0417
     77  CE2       93.3850   43.6690   16.9590 C.ar  176  TYR176      0.0417
     78  CZ        93.9660   44.1040   15.7740 C.ar  176  TYR176      0.1957
     79  OH        95.1480   43.5630   15.3140 O.3   176  TYR176     -0.2866
     80  N         87.1380   46.1070   18.0110 N.am  177  SER177     -0.1952
     81  CA        86.1920   46.4620   19.0740 C.3   177  SER177      0.1924
     82  C         85.1190   45.3960   19.3000 C.2   177  SER177      0.2314
     83  O         84.4260   45.4030   20.3200 O.2   177  SER177     -0.2863
     84  CB        85.5320   47.8230   18.7720 C.3   177  SER177      0.2116
     85  OG        86.4860   48.8780   18.8070 O.3   177  SER177     -0.2180
@<TRIPOS>BOND
     1    43    42    2
     2    44    45    1
     3    44    41    1
     4    62    61    1
     5    42    41    1
     6    47    45   ar
     7    45    46   ar
     8    57    58    1
     9    41    40    1
    10    61    58    1
    11    61    63    1
    12    58    59    1
    13    40    37   am
    14    59    64   am
    15    59    60    2
    16    37    38    2
    17    37    36    1
    18    64    65    1
    19    35    36    1
    20    36    39    1
    21    65    66    1
    22    76    74   ar
    23    76    78   ar
    24    66    67    2
    25    79    78    1
    26    74    73   ar
    27    68    69    1
    28    78    77   ar
    29    34    32    1
    30    51    50    2
    31    73    72    1
    32    73    75   ar
    33    77    75   ar
    34    69    72    1
    35    69    70    1
    36    32    31    1
    37    50    49    1
    38    31    33    1
    39    31    28    1
    40    80    70   am
    41    80    81    1
    42    70    71    2
    43    16    15    1
    44    14    15   ar
    45    14    12   ar
    46    84    85    1
    47    84    81    1
    48    29    28    1
    49    29    30    2
    50    49    52    1
    51    49    48    1
    52    15    13   ar
    53    12    10   ar
    54    52    53    1
    55    81    82    1
    56    28    27    1
    57    82    83    2
    58    13    11   ar
    59    10    11   ar
    60    10     9    1
    61    53    54    1
    62    20    19    2
    63    23    22   ar
    64    23    25   ar
    65    21    22    1
    66    21    18    1
    67    54    55    1
    68    55    56    1
    69    22    24   ar
    70    25    26   ar
    71     9     6    1
    72    17    18    1
    73    17     7   am
    74    19    18    1
    75     6     7    1
    76     6     5    1
    77    26    24   ar
    78     4     3    2
    79     7     8    2
    80     5     3   am
    81     3     2    1
    82     2     1    1
