@<TRIPOS>MOLECULE
tmp/2v35A00.pdb
 124 121 0 0 0
SMALL
GASTEIGER

@<TRIPOS>ATOM
      1  N          3.7250   11.1300    3.9970 N.3    45  HIS45      -0.1241
      2  CA         4.2590   11.5560    2.7040 C.3    45  HIS45       0.1621
      3  C          3.5550   10.8990    1.5180 C.2    45  HIS45       0.2264
      4  O          3.5560   11.4440    0.4070 O.2    45  HIS45      -0.2867
      5  CB         5.7860   11.4230    2.6430 C.3    45  HIS45       0.0745
      6  CG         6.2810   10.0710    2.2450 C.ar   45  HIS45       0.0817
      7  ND1        6.8640    9.1990    3.1450 N.ar   45  HIS45      -0.2268
      8  CD2        6.3250    9.4590    1.0370 C.ar   45  HIS45       0.1154
      9  CE1        7.2400    8.1040    2.5040 C.ar   45  HIS45       0.1986
     10  NE2        6.9170    8.2320    1.2260 N.ar   45  HIS45      -0.2212
     11  N          9.5740   -1.0860   -5.4680 N.3   134  LEU134     -0.1245
     12  CA        10.6490   -1.4610   -6.4060 C.3   134  LEU134      0.1561
     13  C         11.4940   -2.6320   -5.9020 C.2   134  LEU134      0.2260
     14  O         11.8350   -2.7080   -4.7120 O.2   134  LEU134     -0.2867
     15  CB        11.5810   -0.2730   -6.6750 C.3   134  LEU134      0.0270
     16  CG        11.0020    1.0620   -7.1620 C.3   134  LEU134      0.0019
     17  CD1       12.1450    1.8930   -7.7560 C.3   134  LEU134      0.0001
     18  CD2        9.8200    0.9570   -8.1360 C.3   134  LEU134      0.0001
     19  N         16.9320   -0.5810   -6.7870 N.3   137  THR137     -0.1203
     20  CA        16.9940    0.8590   -6.9240 C.3   137  THR137      0.1994
     21  C         16.7240    1.2210   -8.3830 C.2   137  THR137      0.2617
     22  O         17.2680    0.5870   -9.2870 O.2   137  THR137     -0.2717
     23  CB        18.3530    1.3590   -6.4560 C.3   137  THR137      0.1784
     24  OG1       18.5640    0.9080   -5.1000 O.3   137  THR137     -0.2211
     25  CG2       18.3860    2.8620   -6.5150 C.3   137  THR137      0.0376
     26  N         15.8370    2.1900   -8.5960 N.am  138  ASN138     -0.1974
     27  CA        15.4810    2.6220   -9.9680 C.3   138  ASN138      0.1688
     28  C         14.9290    1.4940  -10.8440 C.2   138  ASN138      0.2292
     29  O         15.0220    1.5500  -12.0730 O.2   138  ASN138     -0.2864
     30  CB        16.6710    3.2870  -10.6680 C.3   138  ASN138      0.1181
     31  CG        17.0370    4.6180  -10.0540 C.2   138  ASN138      0.2629
     32  OD1       16.1880    5.5000   -9.8850 O.2   138  ASN138     -0.2716
     33  ND2       18.3000    4.7690   -9.7160 N.am  138  ASN138     -0.0877
     34  N         11.9440   -0.0390   -0.6670 N.3   184  CYS184     -0.1221
     35  CA        12.2740    0.7800   -1.8310 C.3   184  CYS184      0.1808
     36  C         10.9980    1.5000   -2.2670 C.2   184  CYS184      0.2601
     37  O          9.9220    1.2070   -1.7430 O.2   184  CYS184     -0.2717
     38  CB        12.8570   -0.0980   -2.9430 C.3   184  CYS184      0.0970
     39  SG        13.9000    0.7820   -4.1570 S.3   184  CYS184     -0.0800
     40  N         11.1140    2.4400   -3.2020 N.am  185  GLN185     -0.1965
     41  CA         9.9560    3.2290   -3.6380 C.3   185  GLN185      0.1733
     42  C          8.7010    2.3770   -3.8430 C.2   185  GLN185      0.2616
     43  O          8.7330    1.3860   -4.5740 O.2   185  GLN185     -0.2715
     44  CB        10.2670    3.9610   -4.9410 C.3   185  GLN185      0.0408
     45  CG         9.2650    5.0670   -5.2630 C.3   185  GLN185      0.0908
     46  CD         9.1030    6.0550   -4.1140 C.2   185  GLN185      0.2608
     47  OE1       10.0320    6.7920   -3.7710 O.2   185  GLN185     -0.2717
     48  NE2        7.9230    6.0580   -3.4990 N.am  185  GLN185     -0.0878
     49  N          7.6000    2.7840   -3.2110 N.am  186  GLY186     -0.1955
     50  CA         6.3490    2.0300   -3.3070 C.3   186  GLY186      0.1869
     51  C          6.0610    1.1470   -2.1010 C.2   186  GLY186      0.2309
     52  O          4.9340    0.6520   -1.9450 O.2   186  GLY186     -0.2863
     53  N          6.7790    2.5100    0.9100 N.3   188  SER188     -0.1217
     54  CA         6.4620    3.5700    1.8700 C.3   188  SER188      0.1889
     55  C          5.0380    3.4540    2.3510 C.2   188  SER188      0.2288
     56  O          4.1330    3.1480    1.5510 O.2   188  SER188     -0.2866
     57  CB         6.5880    4.9340    1.2090 C.3   188  SER188      0.2089
     58  OG         7.9500    5.3270    1.1170 O.3   188  SER188     -0.2183
     59  N          6.7850    2.3200    6.8910 N.3   206  THR206     -0.1203
     60  CA         7.9360    2.6150    6.0280 C.3   206  THR206      0.1994
     61  C          7.9720    4.0840    5.6400 C.2   206  THR206      0.2619
     62  O          6.9780    4.6180    5.1240 O.2   206  THR206     -0.2717
     63  CB         7.9410    1.7090    4.8000 C.3   206  THR206      0.1784
     64  OG1        7.9050    0.3470    5.2540 O.3   206  THR206     -0.2211
     65  CG2        9.2160    1.9540    3.9650 C.3   206  THR206      0.0376
     66  N          9.1020    4.7400    5.9370 N.am  207  SER207     -0.1937
     67  CA         9.2050    6.1920    5.7110 C.3   207  SER207      0.2055
     68  C         10.2320    6.6150    4.6590 C.2   207  SER207      0.2643
     69  O          9.8970    7.3620    3.7300 O.2   207  SER207     -0.2714
     70  CB         9.4820    6.9350    7.0290 C.3   207  SER207      0.2130
     71  OG         9.5050    8.3630    6.8510 O.3   207  SER207     -0.2179
     72  N         11.4900    6.2020    4.8370 N.am  208  PHE208     -0.1959
     73  CA        12.5320    6.6040    3.8920 C.3   208  PHE208      0.1771
     74  C         13.7050    5.6600    3.8050 C.2   208  PHE208      0.2619
     75  O         13.9180    4.8240    4.6820 O.2   208  PHE208     -0.2715
     76  CB        13.0020    8.0660    4.1140 C.3   208  PHE208      0.0574
     77  CG        13.6730    8.3290    5.4480 C.ar  208  PHE208     -0.0200
     78  CD1       12.9280    8.7580    6.5510 C.ar  208  PHE208     -0.0042
     79  CD2       15.0670    8.2190    5.5740 C.ar  208  PHE208     -0.0042
     80  CE1       13.5620    9.0290    7.7750 C.ar  208  PHE208     -0.0003
     81  CE2       15.7200    8.4890    6.7960 C.ar  208  PHE208     -0.0003
     82  CZ        14.9670    8.9040    7.8900 C.ar  208  PHE208     -0.0000
     83  N         14.4490    5.8170    2.7130 N.am  209  VAL209     -0.1963
     84  CA        15.7200    5.1640    2.5090 C.3   209  VAL209      0.1727
     85  C         16.6950    6.2270    1.9810 C.2   209  VAL209      0.2617
     86  O         16.3270    7.3940    1.8070 O.2   209  VAL209     -0.2715
     87  CB        15.5990    3.9910    1.5040 C.3   209  VAL209      0.0290
     88  CG1       14.6660    2.8790    2.0510 C.3   209  VAL209      0.0023
     89  CG2       15.1030    4.4800    0.1550 C.3   209  VAL209      0.0023
     90  N         17.9330    5.8200    1.7320 N.am  210  SER210     -0.1936
     91  CA        18.9560    6.7570    1.2600 C.3   210  SER210      0.2055
     92  C         18.6010    7.3490   -0.1020 C.2   210  SER210      0.2643
     93  O         18.0590    6.6490   -0.9490 O.2   210  SER210     -0.2714
     94  CB        20.2830    6.0180    1.1220 C.3   210  SER210      0.2130
     95  OG        21.2660    6.8780    0.5850 O.3   210  SER210     -0.2179
     96  N         18.9420    8.6230   -0.3230 N.am  211  ARG211     -0.1963
     97  CA        18.8920    9.2040   -1.6800 C.3   211  ARG211      0.1729
     98  C         19.8220    8.4780   -2.6610 C.2   211  ARG211      0.2616
     99  O         19.6100    8.5030   -3.8900 O.2   211  ARG211     -0.2715
    100  CB        19.2270   10.7110   -1.6450 C.3   211  ARG211      0.0348
    101  CG        18.0610   11.5940   -1.2170 C.3   211  ARG211      0.0492
    102  CD        18.3020   13.0710   -1.5510 C.3   211  ARG211      0.2205
    103  NE        19.1830   13.7080   -0.5800 N.pl3 211  ARG211     -0.0865
    104  CZ        20.4410   14.0890   -0.8050 C.cat 211  ARG211      0.5346
    105  NH1       21.0230   13.9280   -1.9920 N.pl3 211  ARG211      0.1354
    106  NH2       21.1170   14.6430    0.1770 N.pl3 211  ARG211      0.1354
    107  N         20.8560    7.8350   -2.1220 N.am  212  LEU212     -0.1963
    108  CA        21.8210    7.0860   -2.9250 C.3   212  LEU212      0.1728
    109  C         21.2670    5.7770   -3.4900 C.2   212  LEU212      0.2617
    110  O         21.7030    5.3070   -4.5480 O.2   212  LEU212     -0.2715
    111  CB        23.0920    6.8090   -2.1120 C.3   212  LEU212      0.0311
    112  CG        24.1790    7.8900   -2.0930 C.3   212  LEU212      0.0022
    113  CD1       25.3030    7.4460   -1.1850 C.3   212  LEU212      0.0001
    114  CD2       24.7150    8.1860   -3.5010 C.3   212  LEU212      0.0001
    115  N         20.2990    5.1880   -2.7990 N.am  213  GLY213     -0.1940
    116  CA        19.7220    3.9370   -3.2730 C.3   213  GLY213      0.2014
    117  C         18.9610    3.2550   -2.1600 C.2   213  GLY213      0.2639
    118  O         19.0170    3.6860   -1.0060 O.2   213  GLY213     -0.2714
    119  N         18.2610    2.1880   -2.5170 N.am  214  CYS214     -0.1967
    120  CA        17.4440    1.4640   -1.5610 C.3   214  CYS214      0.1712
    121  C         18.3020    0.5720   -0.6590 C.2   214  CYS214      0.2296
    122  O         18.3920    0.8110    0.5490 O.2   214  CYS214     -0.2864
    123  CB        16.3390    0.7080   -2.3070 C.3   214  CYS214      0.0983
    124  SG        15.1740    1.9020   -3.0190 S.3   214  CYS214     -0.0798
@<TRIPOS>BOND
     1    29    28    2
     2    28    27    1
     3    30    31    1
     4    30    27    1
     5    31    32    2
     6    31    33   am
     7    27    26    1
     8    22    21    2
     9    26    21   am
    10    21    20    1
    11    18    16    1
    12    17    16    1
    13    16    15    1
    14    20    19    1
    15    20    23    1
    16    15    12    1
    17    25    23    1
    18    23    24    1
    19    12    13    1
    20    12    11    1
    21    13    14    2
    22    45    44    1
    23    45    46    1
    24    44    41    1
    25    43    42    2
    26   110   109    2
    27    39   124    1
    28    39    38    1
    29    46    47    2
    30    46    48   am
    31    99    98    2
    32    42    41    1
    33    42    49   am
    34    41    40    1
    35   114   112    1
    36   109   108    1
    37   109   115   am
    38    50    49    1
    39    50    51    1
    40   116   115    1
    41   116   117    1
    42    40    36   am
    43   124   123    1
    44    38    35    1
    45   108   107    1
    46   108   111    1
    47    98   107   am
    48    98    97    1
    49   119   117   am
    50   119   120    1
    51   123   120    1
    52    36    35    1
    53    36    37    2
    54   117   118    2
    55   111   112    1
    56    51    52    2
    57   112   113    1
    58   105   104    1
    59    35    34    1
    60    97   100    1
    61    97    96    1
    62   100   101    1
    63   120   121    1
    64   102   101    1
    65   102   103    1
    66    93    92    2
    67   104   103    2
    68   104   106    1
    69   121   122    2
    70    96    92   am
    71    92    91    1
    72    89    87    1
    73     4     3    2
    74    95    94    1
    75    53    54    1
    76     8    10   ar
    77     8     6   ar
    78    58    57    1
    79    94    91    1
    80    57    54    1
    81    10     9   ar
    82    91    90    1
    83    87    88    1
    84    87    84    1
    85     3     2    1
    86    56    55    2
    87    90    85   am
    88    86    85    2
    89    54    55    1
    90    85    84    1
    91     6     5    1
    92     6     7   ar
    93     9     7   ar
    94    84    83    1
    95     5     2    1
    96     2     1    1
    97    83    74   am
    98    69    68    2
    99    74    73    1
   100    74    75    2
   101    73    76    1
   102    73    72    1
   103    65    63    1
   104    76    77    1
   105    68    72   am
   106    68    67    1
   107    63    64    1
   108    63    60    1
   109    62    61    2
   110    77    79   ar
   111    77    78   ar
   112    79    81   ar
   113    61    66   am
   114    61    60    1
   115    67    66    1
   116    67    70    1
   117    60    59    1
   118    78    80   ar
   119    81    82   ar
   120    71    70    1
   121    80    82   ar
