@<TRIPOS>MOLECULE
tmp/2v3aA00.pdb
 81 77 0 0 0
SMALL
GASTEIGER

@<TRIPOS>ATOM
      1  N         88.2010   34.0620    2.1740 N.3   152  LEU152     -0.1245
      2  CA        89.0230   32.9280    2.5750 C.3   152  LEU152      0.1561
      3  C         88.1880   31.7180    2.9960 C.2   152  LEU152      0.2260
      4  O         88.4270   30.6060    2.5290 O.2   152  LEU152     -0.2867
      5  CB        89.9490   33.3770    3.7130 C.3   152  LEU152      0.0270
      6  CG        90.8320   32.3900    4.4850 C.3   152  LEU152      0.0019
      7  CD1       92.0060   33.1830    5.0550 C.3   152  LEU152      0.0001
      8  CD2       90.0600   31.6230    5.6240 C.3   152  LEU152      0.0001
      9  N         90.4170   42.6770   -1.0420 N.3   180  GLY180     -0.1210
     10  CA        90.9770   43.1840    0.2030 C.3   180  GLY180      0.1956
     11  C         92.1130   42.3270    0.7350 C.2   180  GLY180      0.2611
     12  O         93.0310   42.8480    1.3240 O.2   180  GLY180     -0.2717
     13  N         92.0900   41.0210    0.5010 N.am  181  LEU181     -0.1979
     14  CA        93.2070   40.1930    0.9410 C.3   181  LEU181      0.1596
     15  C         94.2250   39.9730   -0.1910 C.2   181  LEU181      0.2287
     16  O         95.4260   40.0420    0.0270 O.2   181  LEU181     -0.2864
     17  CB        92.6840   38.8730    1.5000 C.3   181  LEU181      0.0297
     18  CG        93.6680   37.8680    2.0760 C.3   181  LEU181      0.0022
     19  CD1       94.5360   38.4380    3.2490 C.3   181  LEU181      0.0001
     20  CD2       92.9000   36.6020    2.4680 C.3   181  LEU181      0.0001
     21  N         92.4180   43.9800   14.1350 N.3   282  ASN282     -0.1225
     22  CA        91.4810   42.8820   14.3200 C.3   282  ASN282      0.1785
     23  C         91.8340   41.7480   13.3560 C.2   282  ASN282      0.2597
     24  O         91.5260   41.8100   12.1810 O.2   282  ASN282     -0.2718
     25  CB        90.0420   43.3520   14.1190 C.3   282  ASN282      0.1169
     26  CG        89.0540   42.2210   14.2640 C.2   282  ASN282      0.2627
     27  OD1       89.0680   41.4530   15.2630 O.2   282  ASN282     -0.2716
     28  ND2       88.2020   42.0860   13.2700 N.am  282  ASN282     -0.0877
     29  N         92.5220   40.7320   13.8590 N.am  283  LEU283     -0.1966
     30  CA        93.1060   39.6840   12.9870 C.3   283  LEU283      0.1728
     31  C         92.4500   38.3310   13.2940 C.2   283  LEU283      0.2616
     32  O         92.7030   37.7240   14.3450 O.2   283  LEU283     -0.2715
     33  CB        94.6370   39.6200   13.1340 C.3   283  LEU283      0.0311
     34  CG        95.4090   40.9200   12.8330 C.3   283  LEU283      0.0022
     35  CD1       96.9140   40.7270   13.0340 C.3   283  LEU283      0.0001
     36  CD2       95.1290   41.4870   11.4060 C.3   283  LEU283      0.0001
     37  N         91.6150   37.8880   12.3560 N.am  284  LEU284     -0.1963
     38  CA        90.7260   36.7350   12.5310 C.3   284  LEU284      0.1728
     39  C         91.4550   35.4100   12.2040 C.2   284  LEU284      0.2616
     40  O         91.0070   34.6170   11.3560 O.2   284  LEU284     -0.2715
     41  CB        89.4440   36.9160   11.6860 C.3   284  LEU284      0.0311
     42  CG        88.6290   38.2040   11.9730 C.3   284  LEU284      0.0022
     43  CD1       87.5260   38.5080   10.9410 C.3   284  LEU284      0.0001
     44  CD2       88.0290   38.2090   13.3540 C.3   284  LEU284      0.0001
     45  N         92.5910   35.1960   12.8690 N.am  285  TYR285     -0.1974
     46  CA        93.3260   33.9210   12.7550 C.3   285  TYR285      0.1639
     47  C         94.1020   33.5510   14.0220 C.2   285  TYR285      0.2290
     48  O         94.0340   34.2600   15.0210 O.2   285  TYR285     -0.2864
     49  CB        94.1910   33.8240   11.4780 C.3   285  TYR285      0.0560
     50  CG        95.2110   34.9190   11.1670 C.ar  285  TYR285     -0.0198
     51  CD1       96.5760   34.6080   11.0780 C.ar  285  TYR285     -0.0009
     52  CD2       94.8150   36.2420   10.8790 C.ar  285  TYR285     -0.0009
     53  CE1       97.5410   35.5890   10.7350 C.ar  285  TYR285      0.0417
     54  CE2       95.7700   37.2410   10.5380 C.ar  285  TYR285      0.0417
     55  CZ        97.1290   36.8890   10.4670 C.ar  285  TYR285      0.1957
     56  OH        98.0710   37.8150   10.1200 O.3   285  TYR285     -0.2866
     57  N         99.3100   34.4370    6.3340 N.3   314  VAL314     -0.1245
     58  CA        98.0910   33.6440    6.2710 C.3   314  VAL314      0.1561
     59  C         98.2380   32.5280    5.2140 C.2   314  VAL314      0.2260
     60  O         98.4760   32.8180    4.0220 O.2   314  VAL314     -0.2867
     61  CB        96.8220   34.5680    5.9930 C.3   314  VAL314      0.0252
     62  CG1       95.5340   33.7600    5.8590 C.3   314  VAL314      0.0019
     63  CG2       96.6630   35.6530    7.0890 C.3   314  VAL314      0.0019
     64  N         99.9010   40.2460    3.8290 N.3   327  PRO327     -0.2116
     65  CA        99.7160   41.6610    3.4990 C.3   327  PRO327      0.1372
     66  C        100.7880   42.5200    4.1930 C.2   327  PRO327      0.2244
     67  O        101.2250   42.1820    5.2980 O.2   327  PRO327     -0.2868
     68  CB        98.3230   41.9970    4.0790 C.3   327  PRO327      0.0268
     69  CG        97.6330   40.6520    4.3170 C.3   327  PRO327      0.0207
     70  CD        98.7140   39.6250    4.4600 C.3   327  PRO327      0.0892
     71  N        100.0700   47.7000    8.0360 N.3   330  ARG330     -0.1245
     72  CA        99.2810   48.9070    7.8230 C.3   330  ARG330      0.1563
     73  C        100.1500   50.1650    7.9460 C.2   330  ARG330      0.2260
     74  O        101.0790   50.2080    8.7650 O.2   330  ARG330     -0.2867
     75  CB        98.0880   48.9030    8.7940 C.3   330  ARG330      0.0307
     76  CG        97.5560   47.4610    9.0140 C.3   330  ARG330      0.0489
     77  CD        96.0390   47.3140    9.1870 C.3   330  ARG330      0.2205
     78  NE        95.6350   45.9260    8.9030 N.pl3 330  ARG330     -0.0865
     79  CZ        94.6150   45.2850    9.4740 C.cat 330  ARG330      0.5346
     80  NH1       93.8600   45.8920   10.3840 N.pl3 330  ARG330      0.1354
     81  NH2       94.3530   44.0260    9.1340 N.pl3 330  ARG330      0.1354
@<TRIPOS>BOND
     1     9    10    1
     2    15    16    2
     3    15    14    1
     4    10    11    1
     5    13    11   am
     6    13    14    1
     7    11    12    2
     8    14    17    1
     9    17    18    1
    10    18    20    1
    11    18    19    1
    12     1     2    1
    13     4     3    2
    14     2     3    1
    15     2     5    1
    16    65    64    1
    17    65    68    1
    18    65    66    1
    19     5     6    1
    20    64    70    1
    21    60    59    2
    22    68    69    1
    23    66    67    2
    24    69    70    1
    25     6     7    1
    26     6     8    1
    27    59    58    1
    28    62    61    1
    29    61    58    1
    30    61    63    1
    31    58    57    1
    32    72    73    1
    33    72    71    1
    34    72    75    1
    35    73    74    2
    36    75    76    1
    37    78    77    1
    38    78    79    2
    39    76    77    1
    40    81    79    1
    41    79    80    1
    42    56    55    1
    43    55    54   ar
    44    55    53   ar
    45    54    52   ar
    46    53    51   ar
    47    52    50   ar
    48    43    42    1
    49    51    50   ar
    50    50    49    1
    51    40    39    2
    52    36    34    1
    53    49    46    1
    54    41    42    1
    55    41    38    1
    56    42    44    1
    57    24    23    2
    58    39    38    1
    59    39    45   am
    60    37    38    1
    61    37    31   am
    62    46    45    1
    63    46    47    1
    64    34    35    1
    65    34    33    1
    66    30    33    1
    67    30    31    1
    68    30    29    1
    69    28    26   am
    70    31    32    2
    71    23    29   am
    72    23    22    1
    73    47    48    2
    74    25    26    1
    75    25    22    1
    76    21    22    1
    77    26    27    2
