@<TRIPOS>MOLECULE
tmp/2v3dA01.pdb
 161 156 0 0 0
SMALL
GASTEIGER

@<TRIPOS>ATOM
      1  N         40.6000   35.3430    4.6590 N.3   125  ASP125     -0.1225
      2  CA        40.0530   36.6450    4.2000 C.3   125  ASP125      0.1805
      3  C         39.1960   37.2980    5.2800 C.2   125  ASP125      0.2597
      4  O         39.1800   38.5150    5.3910 O.2   125  ASP125     -0.2718
      5  CB        39.2910   36.5430    2.8430 C.3   125  ASP125      0.1424
      6  CG        38.1340   35.5230    2.8670 C.2   125  ASP125      0.3668
      7  OD1       38.2430   34.4670    3.5370 O.co2 125  ASP125     -0.2456
      8  OD2       37.1040   35.7810    2.1890 O.co2 125  ASP125     -0.2456
      9  N         38.5100   36.4900    6.0870 N.am  126  PHE126     -0.1976
     10  CA        37.6630   36.9980    7.1440 C.3   126  PHE126      0.1639
     11  C         38.4760   37.2270    8.4150 C.2   126  PHE126      0.2290
     12  O         38.1370   36.7520    9.5060 O.2   126  PHE126     -0.2864
     13  CB        36.3850   36.1120    7.2810 C.3   126  PHE126      0.0560
     14  CG        35.3370   36.4950    6.2610 C.ar  126  PHE126     -0.0200
     15  CD1       35.2280   35.8060    5.0620 C.ar  126  PHE126     -0.0042
     16  CD2       34.5650   37.6510    6.4580 C.ar  126  PHE126     -0.0042
     17  CE1       34.3000   36.2320    4.0690 C.ar  126  PHE126     -0.0003
     18  CE2       33.6410   38.0780    5.4860 C.ar  126  PHE126     -0.0003
     19  CZ        33.5100   37.3780    4.3110 C.ar  126  PHE126     -0.0000
     20  N         44.2300   28.0490    5.9250 N.3   177  TRP177     -0.1241
     21  CA        44.1960   28.7170    4.6130 C.3   177  TRP177      0.1605
     22  C         45.5990   28.7690    4.0320 C.2   177  TRP177      0.2264
     23  O         45.8300   28.3540    2.8810 O.2   177  TRP177     -0.2867
     24  CB        43.5450   30.1080    4.6960 C.3   177  TRP177      0.0550
     25  CG        42.0230   30.1540    4.5100 C.ar  177  TRP177      0.0003
     26  CD1       41.3360   30.8700    3.5460 C.ar  177  TRP177      0.0946
     27  CD2       41.0100   29.5140    5.3210 C.ar  177  TRP177      0.0152
     28  NE1       39.9920   30.6590    3.6820 N.ar  177  TRP177     -0.2442
     29  CE2       39.7560   29.8440    4.7550 C.ar  177  TRP177      0.0810
     30  CE3       41.0450   28.6710    6.4590 C.ar  177  TRP177      0.0012
     31  CZ2       38.5330   29.3580    5.2750 C.ar  177  TRP177      0.0191
     32  CZ3       39.8340   28.2000    6.9850 C.ar  177  TRP177      0.0001
     33  CH2       38.5950   28.5520    6.4070 C.ar  177  TRP177      0.0015
     34  N         42.0530   24.2690    3.4270 N.3   232  ASN232     -0.1225
     35  CA        40.8960   24.9390    2.8060 C.3   232  ASN232      0.1785
     36  C         41.1420   25.1840    1.3010 C.2   232  ASN232      0.2597
     37  O         42.1630   25.8180    0.9320 O.2   232  ASN232     -0.2718
     38  CB        40.6240   26.3190    3.4590 C.3   232  ASN232      0.1169
     39  CG        39.4290   27.0190    2.8360 C.2   232  ASN232      0.2627
     40  OD1       38.2800   26.5840    3.0020 O.2   232  ASN232     -0.2716
     41  ND2       39.6950   28.0460    2.0360 N.am  232  ASN232     -0.0877
     42  N         40.1920   24.7390    0.4570 N.am  233  GLU233     -0.1979
     43  CA        40.2230   24.9920   -1.0030 C.3   233  GLU233      0.1602
     44  C         41.6220   24.9180   -1.5700 C.2   233  GLU233      0.2287
     45  O         42.1790   25.9440   -2.0220 O.2   233  GLU233     -0.2864
     46  CB        39.5280   26.3360   -1.3580 C.3   233  GLU233      0.0415
     47  CG        38.1060   26.3540   -0.8430 C.3   233  GLU233      0.1163
     48  CD        37.2540   27.4580   -1.3990 C.2   233  GLU233      0.3649
     49  OE1       37.8230   28.4650   -1.8790 O.co2 233  GLU233     -0.2457
     50  OE2       36.0060   27.3050   -1.3220 O.co2 233  GLU233     -0.2457
     51  N         45.5240   34.5810   -6.9680 N.3   242  TYR242     -0.1241
     52  CA        44.4920   34.3200   -5.9720 C.3   242  TYR242      0.1605
     53  C         44.6300   35.3180   -4.8090 C.2   242  TYR242      0.2264
     54  O         45.6900   35.4330   -4.2240 O.2   242  TYR242     -0.2867
     55  CB        44.5360   32.8710   -5.4870 C.3   242  TYR242      0.0534
     56  CG        43.2730   32.5560   -4.7530 C.ar  242  TYR242     -0.0201
     57  CD1       42.1050   32.2490   -5.4670 C.ar  242  TYR242     -0.0009
     58  CD2       43.2200   32.6010   -3.3420 C.ar  242  TYR242     -0.0009
     59  CE1       40.9150   31.9720   -4.8190 C.ar  242  TYR242      0.0417
     60  CE2       42.0140   32.3390   -2.6700 C.ar  242  TYR242      0.0417
     61  CZ        40.8720   32.0150   -3.4200 C.ar  242  TYR242      0.1957
     62  OH        39.6720   31.7510   -2.8030 O.3   242  TYR242     -0.2866
     63  N         43.6440   36.0550   -1.5800 N.3   244  PHE244     -0.1241
     64  CA        43.9340   36.0130   -0.1510 C.3   244  PHE244      0.1605
     65  C         44.5180   34.6520    0.2150 C.2   244  PHE244      0.2264
     66  O         44.8570   33.8670   -0.6840 O.2   244  PHE244     -0.2867
     67  CB        42.6720   36.3180    0.6360 C.3   244  PHE244      0.0534
     68  CG        41.5240   35.3760    0.3240 C.ar  244  PHE244     -0.0203
     69  CD1       41.3900   34.1640    1.0080 C.ar  244  PHE244     -0.0042
     70  CD2       40.5620   35.7300   -0.6340 C.ar  244  PHE244     -0.0042
     71  CE1       40.3170   33.3220    0.7370 C.ar  244  PHE244     -0.0003
     72  CE2       39.5170   34.9020   -0.9240 C.ar  244  PHE244     -0.0003
     73  CZ        39.3840   33.6940   -0.2340 C.ar  244  PHE244     -0.0000
     74  N         35.2710   22.6680   -3.8460 N.3   282  GLN282     -0.1245
     75  CA        34.0500   22.5540   -4.6680 C.3   282  GLN282      0.1566
     76  C         33.7450   21.0920   -5.0640 C.2   282  GLN282      0.2260
     77  O         34.6580   20.3350   -5.4170 O.2   282  GLN282     -0.2867
     78  CB        34.1480   23.4420   -5.9240 C.3   282  GLN282      0.0367
     79  CG        34.6810   24.8680   -5.6930 C.3   282  GLN282      0.0905
     80  CD        34.1440   25.5240   -4.4520 C.2   282  GLN282      0.2608
     81  OE1       32.9400   25.4610   -4.1550 O.2   282  GLN282     -0.2717
     82  NE2       35.0410   26.1690   -3.6990 N.am  282  GLN282     -0.0878
     83  N         30.0150   26.4620   -3.5200 N.3   311  TYR311     -0.1227
     84  CA        30.0220   27.6970   -4.3160 C.3   311  TYR311      0.1736
     85  C         29.8210   27.5140   -5.8100 C.2   311  TYR311      0.2595
     86  O         29.2840   28.4110   -6.4680 O.2   311  TYR311     -0.2718
     87  CB        31.3100   28.4820   -4.0410 C.3   311  TYR311      0.0548
     88  CG        31.3990   28.8870   -2.5920 C.ar  311  TYR311     -0.0200
     89  CD1       32.2270   28.1860   -1.7030 C.ar  311  TYR311     -0.0009
     90  CD2       30.6370   29.9690   -2.0980 C.ar  311  TYR311     -0.0009
     91  CE1       32.2830   28.5230   -0.3710 C.ar  311  TYR311      0.0417
     92  CE2       30.6970   30.3140   -0.7660 C.ar  311  TYR311      0.0417
     93  CZ        31.5450   29.6130    0.0810 C.ar  311  TYR311      0.1957
     94  OH        31.6240   29.9280    1.4160 O.3   311  TYR311     -0.2866
     95  N         30.2650   26.3780   -6.3410 N.am  312  LEU312     -0.1980
     96  CA        30.0850   26.0800   -7.7610 C.3   312  LEU312      0.1596
     97  C         29.1290   24.8900   -7.9720 C.2   312  LEU312      0.2287
     98  O         29.2670   24.1180   -8.9700 O.2   312  LEU312     -0.2864
     99  CB        31.4630   25.8460   -8.4440 C.3   312  LEU312      0.0297
    100  CG        32.4580   27.0300   -8.3580 C.3   312  LEU312      0.0022
    101  CD1       33.8110   26.7110   -9.0260 C.3   312  LEU312      0.0001
    102  CD2       31.8650   28.2960   -8.8920 C.3   312  LEU312      0.0001
    103  N         31.6750   24.3160    4.0940 N.3   338  GLU338     -0.1245
    104  CA        31.5680   25.7940    3.9540 C.3   338  GLU338      0.1567
    105  C         30.5680   26.2440    2.9140 C.2   338  GLU338      0.2260
    106  O         30.5810   25.7700    1.7790 O.2   338  GLU338     -0.2867
    107  CB        32.9110   26.4370    3.6270 C.3   338  GLU338      0.0388
    108  CG        32.9630   27.9440    3.9410 C.3   338  GLU338      0.1160
    109  CD        34.1750   28.5820    3.2340 C.2   338  GLU338      0.3649
    110  OE1       35.3530   28.2480    3.5690 O.co2 338  GLU338     -0.2457
    111  OE2       33.9300   29.3790    2.3280 O.co2 338  GLU338     -0.2457
    112  N         28.2640   30.1170    1.9590 N.3   340  CYS340     -0.1235
    113  CA        27.6520   31.4240    2.2040 C.3   340  CYS340      0.1677
    114  C         27.0610   31.9380    0.8970 C.2   340  CYS340      0.2270
    115  O         27.5140   31.5720   -0.2200 O.2   340  CYS340     -0.2867
    116  CB        28.6450   32.4380    2.8100 C.3   340  CYS340      0.0956
    117  SG        30.0170   32.9010    1.7410 S.3   340  CYS340     -0.0801
    118  N         28.5560   35.9480   -2.2560 N.3   343  SER343     -0.1202
    119  CA        29.9910   35.9090   -2.5590 C.3   343  SER343      0.2020
    120  C         30.3650   36.1270   -4.0380 C.2   343  SER343      0.2618
    121  O         31.5550   36.3150   -4.3470 O.2   343  SER343     -0.2717
    122  CB        30.6560   34.6390   -2.0210 C.3   343  SER343      0.2103
    123  OG        30.5020   33.5310   -2.8890 O.3   343  SER343     -0.2182
    124  N         29.3850   36.1350   -4.9460 N.am  344  LYS344     -0.1979
    125  CA        29.7090   36.3670   -6.3590 C.3   344  LYS344      0.1596
    126  C         29.9160   37.8660   -6.6300 C.2   344  LYS344      0.2287
    127  O         29.3000   38.7040   -5.9860 O.2   344  LYS344     -0.2864
    128  CB        28.6400   35.7670   -7.2900 C.3   344  LYS344      0.0298
    129  CG        28.3680   34.2610   -7.1080 C.3   344  LYS344      0.0038
    130  CD        29.5460   33.4270   -7.5940 C.3   344  LYS344      0.0206
    131  CE        29.2120   31.9060   -7.7310 C.3   344  LYS344      0.1093
    132  NZ        28.8850   31.1920   -6.4280 N.3   344  LYS344     -0.1314
    133  N         29.3910   29.3570    6.8600 N.3   379  TRP379     -0.1241
    134  CA        30.6360   30.0770    6.9810 C.3   379  TRP379      0.1605
    135  C         30.5050   31.0310    8.2080 C.2   379  TRP379      0.2264
    136  O         29.9780   30.5930    9.2490 O.2   379  TRP379     -0.2867
    137  CB        30.9360   30.7410    5.6200 C.3   379  TRP379      0.0550
    138  CG        32.2840   31.4020    5.3460 C.ar  379  TRP379      0.0003
    139  CD1       32.5040   32.4100    4.4440 C.ar  379  TRP379      0.0946
    140  CD2       33.5620   31.0970    5.9170 C.ar  379  TRP379      0.0152
    141  NE1       33.8460   32.7510    4.3960 N.ar  379  TRP379     -0.2442
    142  CE2       34.5160   31.9920    5.3180 C.ar  379  TRP379      0.0810
    143  CE3       34.0000   30.2070    6.9210 C.ar  379  TRP379      0.0012
    144  CZ2       35.8620   31.9830    5.6530 C.ar  379  TRP379      0.0191
    145  CZ3       35.3410   30.2030    7.2550 C.ar  379  TRP379      0.0001
    146  CH2       36.2590   31.0880    6.6360 C.ar  379  TRP379      0.0015
    147  N         36.3560   41.0450    0.5790 N.3   394  ASN394     -0.1240
    148  CA        35.6160   39.9400   -0.0570 C.3   394  ASN394      0.1653
    149  C         34.3280   39.6660    0.7600 C.2   394  ASN394      0.2266
    150  O         34.0920   38.5310    1.2390 O.2   394  ASN394     -0.2867
    151  CB        36.5480   38.7070   -0.1720 C.3   394  ASN394      0.1155
    152  CG        35.8880   37.4760   -0.8660 C.2   394  ASN394      0.2627
    153  OD1       36.0560   36.3170   -0.4110 O.2   394  ASN394     -0.2716
    154  ND2       35.1640   37.7150   -1.9440 N.am  394  ASN394     -0.0877
    155  N         30.5610   39.0930    2.2160 N.3   396  VAL396     -0.1245
    156  CA        29.4940   38.1400    1.9460 C.3   396  VAL396      0.1561
    157  C         28.3490   38.2750    2.9860 C.2   396  VAL396      0.2260
    158  O         28.3640   39.1680    3.8190 O.2   396  VAL396     -0.2867
    159  CB        30.0360   36.6430    1.9640 C.3   396  VAL396      0.0252
    160  CG1       31.2340   36.4680    1.0270 C.3   396  VAL396      0.0019
    161  CG2       30.3720   36.2010    3.3970 C.3   396  VAL396      0.0019
@<TRIPOS>BOND
     1   101   100    1
     2    98    97    2
     3   102   100    1
     4    99   100    1
     5    99    96    1
     6    97    96    1
     7    96    95    1
     8   131   130    1
     9   131   132    1
    10   130   129    1
    11   128   129    1
    12   128   125    1
    13    51    52    1
    14   126   125    1
    15   126   127    2
    16    86    85    2
    17   125   124    1
    18    95    85   am
    19    52    55    1
    20    52    53    1
    21    78    79    1
    22    78    75    1
    23    85    84    1
    24    79    80    1
    25    55    56    1
    26    57    59   ar
    27    57    56   ar
    28    77    76    2
    29    76    75    1
    30   124   120   am
    31    59    61   ar
    32    53    54    2
    33    56    58   ar
    34    75    74    1
    35    80    81    2
    36    80    82   am
    37   121   120    2
    38    84    87    1
    39    84    83    1
    40    87    88    1
    41   120   119    1
    42    61    62    1
    43    61    60   ar
    44    58    60   ar
    45   123   122    1
    46    88    90   ar
    47    88    89   ar
    48   119   118    1
    49   119   122    1
    50    90    92   ar
    51    45    44    2
    52   154   152   am
    53    49    48   ar
    54    89    91   ar
    55    63    64    1
    56    44    43    1
    57    48    50   ar
    58    48    47    1
    59    46    43    1
    60    46    47    1
    61    43    42    1
    62    72    70   ar
    63    72    73   ar
    64   152   153    2
    65   152   151    1
    66    92    93   ar
    67    66    65    2
    68    70    68   ar
    69    91    93   ar
    70    73    71   ar
    71   115   114    2
    72   151   148    1
    73    64    65    1
    74    64    67    1
    75   148   147    1
    76   148   149    1
    77    93    94    1
    78    68    67    1
    79    68    69   ar
    80    42    36   am
    81    71    69   ar
    82   149   150    2
    83   114   113    1
    84    37    36    2
    85   160   159    1
    86    36    35    1
    87   117   116    1
    88   106   105    2
    89   156   159    1
    90   156   155    1
    91   156   157    1
    92   112   113    1
    93   159   161    1
    94    41    39   am
    95     8     6   ar
    96   113   116    1
    97   111   109   ar
    98    35    34    1
    99    35    38    1
   100    39    40    2
   101    39    38    1
   102     5     6    1
   103     5     2    1
   104     6     7   ar
   105    23    22    2
   106   105   104    1
   107   157   158    2
   108   109   110   ar
   109   109   108    1
   110    26    28   ar
   111    26    25   ar
   112   107   108    1
   113   107   104    1
   114    28    29   ar
   115   104   103    1
   116    22    21    1
   117    17    19   ar
   118    17    15   ar
   119     2     1    1
   120     2     3    1
   121    19    18   ar
   122   141   139   ar
   123   141   142   ar
   124   139   138   ar
   125    25    24    1
   126    25    27   ar
   127    21    24    1
   128    21    20    1
   129    29    31   ar
   130    29    27   ar
   131    15    14   ar
   132    31    33   ar
   133     3     4    2
   134     3     9   am
   135   142   144   ar
   136   142   140   ar
   137    27    30   ar
   138   138   137    1
   139   138   140   ar
   140    18    16   ar
   141   137   134    1
   142   144   146   ar
   143   140   143   ar
   144     9    10    1
   145    14    16   ar
   146    14    13    1
   147    33    32   ar
   148    30    32   ar
   149   146   145   ar
   150   133   134    1
   151   143   145   ar
   152   134   135    1
   153    10    13    1
   154    10    11    1
   155   135   136    2
   156    11    12    2
