@<TRIPOS>MOLECULE
tmp/2v3eA01.pdb
 169 163 0 0 0
SMALL
GASTEIGER

@<TRIPOS>ATOM
      1  N         40.6400   35.4140    4.6230 N.3   128  ASP128     -0.1225
      2  CA        40.0660   36.6910    4.1630 C.3   128  ASP128      0.1805
      3  C         39.2240   37.3870    5.2410 C.2   128  ASP128      0.2597
      4  O         39.2520   38.6100    5.3430 O.2   128  ASP128     -0.2718
      5  CB        39.2770   36.5310    2.8330 C.3   128  ASP128      0.1424
      6  CG        38.1330   35.5030    2.9180 C.2   128  ASP128      0.3668
      7  OD1       38.2610   34.4270    3.5980 O.co2 128  ASP128     -0.2456
      8  OD2       37.1040   35.7780    2.2270 O.co2 128  ASP128     -0.2456
      9  N         38.4960   36.5920    6.0270 N.am  129  PHE129     -0.1976
     10  CA        37.6860   37.0650    7.1390 C.3   129  PHE129      0.1639
     11  C         38.5300   37.2660    8.4240 C.2   129  PHE129      0.2290
     12  O         38.2220   36.7620    9.5160 O.2   129  PHE129     -0.2864
     13  CB        36.3900   36.2210    7.2970 C.3   129  PHE129      0.0560
     14  CG        35.3520   36.6360    6.3110 C.ar  129  PHE129     -0.0200
     15  CD1       35.2320   35.9770    5.0780 C.ar  129  PHE129     -0.0042
     16  CD2       34.5910   37.8000    6.5360 C.ar  129  PHE129     -0.0042
     17  CE1       34.2940   36.4320    4.0950 C.ar  129  PHE129     -0.0003
     18  CE2       33.6810   38.2720    5.5620 C.ar  129  PHE129     -0.0003
     19  CZ        33.5230   37.5530    4.3350 C.ar  129  PHE129     -0.0000
     20  N         44.3680   28.1460    5.8150 N.3   180  TRP180     -0.1241
     21  CA        44.2380   28.8390    4.5550 C.3   180  TRP180      0.1605
     22  C         45.6430   28.8960    3.9760 C.2   180  TRP180      0.2264
     23  O         45.8880   28.4200    2.8620 O.2   180  TRP180     -0.2867
     24  CB        43.5910   30.2130    4.7570 C.3   180  TRP180      0.0550
     25  CG        42.0960   30.2420    4.5420 C.ar  180  TRP180      0.0003
     26  CD1       41.4210   30.9200    3.5470 C.ar  180  TRP180      0.0946
     27  CD2       41.0880   29.6000    5.3480 C.ar  180  TRP180      0.0152
     28  NE1       40.0610   30.7250    3.6880 N.ar  180  TRP180     -0.2442
     29  CE2       39.8360   29.8990    4.7660 C.ar  180  TRP180      0.0810
     30  CE3       41.1290   28.7750    6.5000 C.ar  180  TRP180      0.0012
     31  CZ2       38.6210   29.4310    5.3060 C.ar  180  TRP180      0.0191
     32  CZ3       39.9330   28.2820    7.0210 C.ar  180  TRP180      0.0001
     33  CH2       38.6810   28.6200    6.4260 C.ar  180  TRP180      0.0015
     34  N         42.1030   24.3110    3.3970 N.3   235  ASN235     -0.1225
     35  CA        40.9750   25.0170    2.7380 C.3   235  ASN235      0.1785
     36  C         41.2030   25.2600    1.2410 C.2   235  ASN235      0.2597
     37  O         42.2260   25.8510    0.8320 O.2   235  ASN235     -0.2718
     38  CB        40.6770   26.3780    3.3930 C.3   235  ASN235      0.1169
     39  CG        39.4480   27.0340    2.7890 C.2   235  ASN235      0.2627
     40  OD1       38.3310   26.5720    2.9900 O.2   235  ASN235     -0.2716
     41  ND2       39.6660   28.0630    1.9920 N.am  235  ASN235     -0.0877
     42  N         40.2700   24.7820    0.4260 N.am  236  GLU236     -0.1979
     43  CA        40.3090   25.0740   -1.0090 C.3   236  GLU236      0.1602
     44  C         41.7140   25.0360   -1.5790 C.2   236  GLU236      0.2287
     45  O         42.2650   26.0710   -1.9290 O.2   236  GLU236     -0.2864
     46  CB        39.6220   26.4180   -1.2890 C.3   236  GLU236      0.0415
     47  CG        38.1320   26.2850   -0.9800 C.3   236  GLU236      0.1163
     48  CD        37.2790   27.4490   -1.4460 C.2   236  GLU236      0.3649
     49  OE1       37.8440   28.4480   -1.9580 O.co2 236  GLU236     -0.2457
     50  OE2       36.0410   27.3430   -1.2930 O.co2 236  GLU236     -0.2457
     51  N         45.8420   29.1220   -8.5620 N.3   242  LEU242     -0.1245
     52  CA        45.2980   30.1530   -9.4280 C.3   242  LEU242      0.1561
     53  C         46.1890   31.3810   -9.3280 C.2   242  LEU242      0.2260
     54  O         46.4530   31.8750   -8.2170 O.2   242  LEU242     -0.2867
     55  CB        43.8450   30.4970   -9.0260 C.3   242  LEU242      0.0270
     56  CG        42.9960   31.4420   -9.9090 C.3   242  LEU242      0.0019
     57  CD1       42.9840   30.9930  -11.4000 C.3   242  LEU242      0.0001
     58  CD2       41.6040   31.5020   -9.3320 C.3   242  LEU242      0.0001
     59  N         45.5830   34.6110   -6.9630 N.3   245  TYR245     -0.1241
     60  CA        44.5820   34.3590   -5.9110 C.3   245  TYR245      0.1605
     61  C         44.7190   35.4110   -4.8010 C.2   245  TYR245      0.2264
     62  O         45.7810   35.5710   -4.2480 O.2   245  TYR245     -0.2867
     63  CB        44.6390   32.9490   -5.3410 C.3   245  TYR245      0.0534
     64  CG        43.3380   32.6370   -4.6370 C.ar  245  TYR245     -0.0201
     65  CD1       42.2030   32.2730   -5.3870 C.ar  245  TYR245     -0.0009
     66  CD2       43.2120   32.7520   -3.2280 C.ar  245  TYR245     -0.0009
     67  CE1       40.9790   32.0170   -4.7640 C.ar  245  TYR245      0.0417
     68  CE2       41.9790   32.4940   -2.5930 C.ar  245  TYR245      0.0417
     69  CZ        40.8710   32.1310   -3.3830 C.ar  245  TYR245      0.1957
     70  OH        39.6390   31.8430   -2.8350 O.3   245  TYR245     -0.2866
     71  N         43.7620   36.2180   -1.6790 N.3   247  PHE247     -0.1241
     72  CA        44.0140   36.1240   -0.2370 C.3   247  PHE247      0.1605
     73  C         44.6400   34.7750    0.1450 C.2   247  PHE247      0.2264
     74  O         44.9970   33.9850   -0.7580 O.2   247  PHE247     -0.2867
     75  CB        42.7610   36.4750    0.5780 C.3   247  PHE247      0.0534
     76  CG        41.5980   35.5180    0.3600 C.ar  247  PHE247     -0.0203
     77  CD1       41.4890   34.3310    1.1150 C.ar  247  PHE247     -0.0042
     78  CD2       40.6220   35.8040   -0.6060 C.ar  247  PHE247     -0.0042
     79  CE1       40.4350   33.4300    0.9080 C.ar  247  PHE247     -0.0003
     80  CE2       39.5480   34.9050   -0.8080 C.ar  247  PHE247     -0.0003
     81  CZ        39.4660   33.7230   -0.0270 C.ar  247  PHE247     -0.0000
     82  N         35.3800   22.6420   -3.8910 N.3   285  GLN285     -0.1245
     83  CA        34.1400   22.5350   -4.6800 C.3   285  GLN285      0.1566
     84  C         33.8340   21.1020   -5.1030 C.2   285  GLN285      0.2260
     85  O         34.7130   20.3600   -5.5810 O.2   285  GLN285     -0.2867
     86  CB        34.1870   23.4630   -5.9110 C.3   285  GLN285      0.0367
     87  CG        34.7830   24.8660   -5.6440 C.3   285  GLN285      0.0905
     88  CD        34.1660   25.5950   -4.4630 C.2   285  GLN285      0.2608
     89  OE1       32.9650   25.4500   -4.1470 O.2   285  GLN285     -0.2717
     90  NE2       34.9960   26.3640   -3.7770 N.am  285  GLN285     -0.0878
     91  N         30.1580   26.4860   -3.5210 N.3   314  TYR314     -0.1227
     92  CA        30.1760   27.7000   -4.3180 C.3   314  TYR314      0.1736
     93  C         29.9420   27.4980   -5.8030 C.2   314  TYR314      0.2595
     94  O         29.4750   28.4100   -6.4740 O.2   314  TYR314     -0.2718
     95  CB        31.4670   28.5010   -4.0640 C.3   314  TYR314      0.0548
     96  CG        31.5490   28.9140   -2.6210 C.ar  314  TYR314     -0.0200
     97  CD1       32.3280   28.1820   -1.6860 C.ar  314  TYR314     -0.0009
     98  CD2       30.8080   30.0010   -2.1640 C.ar  314  TYR314     -0.0009
     99  CE1       32.3600   28.5620   -0.3200 C.ar  314  TYR314      0.0417
    100  CE2       30.8430   30.3750   -0.8350 C.ar  314  TYR314      0.0417
    101  CZ        31.6120   29.6350    0.0890 C.ar  314  TYR314      0.1957
    102  OH        31.6330   30.0520    1.4140 O.3   314  TYR314     -0.2866
    103  N         30.3160   26.3310   -6.3320 N.am  315  LEU315     -0.1980
    104  CA        30.1390   26.0500   -7.7730 C.3   315  LEU315      0.1596
    105  C         29.1780   24.8890   -7.9950 C.2   315  LEU315      0.2287
    106  O         29.3110   24.1200   -8.9660 O.2   315  LEU315     -0.2864
    107  CB        31.4760   25.7570   -8.4660 C.3   315  LEU315      0.0297
    108  CG        32.3700   27.0000   -8.4650 C.3   315  LEU315      0.0022
    109  CD1       33.7220   26.5460   -8.9600 C.3   315  LEU315      0.0001
    110  CD2       31.7460   28.1130   -9.3230 C.3   315  LEU315      0.0001
    111  N         31.7580   24.3480    4.0380 N.3   341  GLU341     -0.1245
    112  CA        31.6380   25.8030    3.8580 C.3   341  GLU341      0.1567
    113  C         30.6350   26.2890    2.8200 C.2   341  GLU341      0.2260
    114  O         30.6420   25.8510    1.6630 O.2   341  GLU341     -0.2867
    115  CB        33.0010   26.4360    3.5620 C.3   341  GLU341      0.0388
    116  CG        33.0680   27.9260    3.9380 C.3   341  GLU341      0.1160
    117  CD        34.2050   28.6430    3.2410 C.2   341  GLU341      0.3649
    118  OE1       35.3890   28.3510    3.5090 O.co2 341  GLU341     -0.2457
    119  OE2       33.9000   29.4930    2.4100 O.co2 341  GLU341     -0.2457
    120  N         28.2960   30.2010    1.8460 N.3   343  CYS343     -0.1235
    121  CA        27.6780   31.5190    2.0920 C.3   343  CYS343      0.1677
    122  C         27.0990   32.0670    0.7890 C.2   343  CYS343      0.2270
    123  O         27.5620   31.7370   -0.3140 O.2   343  CYS343     -0.2867
    124  CB        28.6670   32.5500    2.6950 C.3   343  CYS343      0.0956
    125  SG        30.1010   32.9530    1.6310 S.3   343  CYS343     -0.0801
    126  N         28.7270   36.1140   -2.2180 N.3   346  SER346     -0.1202
    127  CA        30.1470   36.1230   -2.5700 C.3   346  SER346      0.2020
    128  C         30.4700   36.2360   -4.0740 C.2   346  SER346      0.2618
    129  O         31.6640   36.3120   -4.4550 O.2   346  SER346     -0.2717
    130  CB        30.8520   34.8980   -1.9980 C.3   346  SER346      0.2103
    131  OG        30.6150   33.7470   -2.7680 O.3   346  SER346     -0.2182
    132  N         29.4510   36.2140   -4.9310 N.am  347  LYS347     -0.1979
    133  CA        29.7190   36.4210   -6.3460 C.3   347  LYS347      0.1596
    134  C         29.8820   37.9330   -6.5430 C.2   347  LYS347      0.2287
    135  O         29.2450   38.7320   -5.8530 O.2   347  LYS347     -0.2864
    136  CB        28.6380   35.8140   -7.2290 C.3   347  LYS347      0.0298
    137  CG        28.3980   34.3280   -6.9890 C.3   347  LYS347      0.0038
    138  CD        29.3790   33.4510   -7.7900 C.3   347  LYS347      0.0206
    139  CE        29.1180   31.9220   -7.6470 C.3   347  LYS347      0.1093
    140  NZ        29.0820   31.3250   -6.2320 N.3   347  LYS347     -0.1314
    141  N         29.4990   29.3600    6.8120 N.3   382  TRP382     -0.1241
    142  CA        30.7310   30.0940    6.9420 C.3   382  TRP382      0.1605
    143  C         30.5690   31.0680    8.1710 C.2   382  TRP382      0.2264
    144  O         30.0060   30.6560    9.2000 O.2   382  TRP382     -0.2867
    145  CB        31.0430   30.7350    5.5680 C.3   382  TRP382      0.0550
    146  CG        32.3650   31.4590    5.3330 C.ar  382  TRP382      0.0003
    147  CD1       32.5640   32.4840    4.4400 C.ar  382  TRP382      0.0946
    148  CD2       33.6530   31.1580    5.8900 C.ar  382  TRP382      0.0152
    149  NE1       33.8830   32.8740    4.4470 N.ar  382  TRP382     -0.2442
    150  CE2       34.5740   32.0950    5.3440 C.ar  382  TRP382      0.0810
    151  CE3       34.1080   30.2580    6.8660 C.ar  382  TRP382      0.0012
    152  CZ2       35.9370   32.1310    5.7170 C.ar  382  TRP382      0.0191
    153  CZ3       35.4770   30.2730    7.2030 C.ar  382  TRP382      0.0001
    154  CH2       36.3620   31.2130    6.6450 C.ar  382  TRP382      0.0015
    155  N         36.4520   41.1530    0.6120 N.3   397  ASN397     -0.1240
    156  CA        35.7080   40.0390   -0.0240 C.3   397  ASN397      0.1653
    157  C         34.4220   39.7440    0.7790 C.2   397  ASN397      0.2266
    158  O         34.2050   38.6200    1.2480 O.2   397  ASN397     -0.2867
    159  CB        36.6370   38.7830   -0.1660 C.3   397  ASN397      0.1155
    160  CG        35.9550   37.5790   -0.8440 C.2   397  ASN397      0.2627
    161  OD1       36.0490   36.4160   -0.3640 O.2   397  ASN397     -0.2716
    162  ND2       35.2710   37.8390   -1.9260 N.am  397  ASN397     -0.0877
    163  N         30.6400   39.1110    2.1520 N.3   399  VAL399     -0.1245
    164  CA        29.5920   38.1280    1.8760 C.3   399  VAL399      0.1561
    165  C         28.4060   38.3230    2.8400 C.2   399  VAL399      0.2260
    166  O         28.4130   39.2490    3.6480 O.2   399  VAL399     -0.2867
    167  CB        30.1620   36.6590    1.9860 C.3   399  VAL399      0.0252
    168  CG1       31.3730   36.4590    1.0410 C.3   399  VAL399      0.0019
    169  CG2       30.5530   36.3190    3.4610 C.3   399  VAL399      0.0019
@<TRIPOS>BOND
     1    57    56    1
     2    56    58    1
     3    56    55    1
     4    52    53    1
     5    52    55    1
     6    52    51    1
     7    53    54    2
     8   110   108    1
     9   106   105    2
    10   109   108    1
    11   107   108    1
    12   107   104    1
    13   105   104    1
    14   138   139    1
    15   138   137    1
    16   104   103    1
    17   139   140    1
    18   136   137    1
    19   136   133    1
    20    59    60    1
    21   134   133    1
    22   134   135    2
    23    94    93    2
    24   133   132    1
    25   103    93   am
    26    60    63    1
    27    60    61    1
    28    86    87    1
    29    86    83    1
    30    93    92    1
    31    87    88    1
    32    85    84    2
    33    65    67   ar
    34    65    64   ar
    35    63    64    1
    36    84    83    1
    37   132   128   am
    38    61    62    2
    39    67    69   ar
    40    83    82    1
    41    64    66   ar
    42    88    89    2
    43    88    90   am
    44   129   128    2
    45    92    95    1
    46    92    91    1
    47   128   127    1
    48    95    96    1
    49    69    70    1
    50    69    68   ar
    51    66    68   ar
    52   131   130    1
    53    96    98   ar
    54    96    97   ar
    55   127   126    1
    56   127   130    1
    57    98   100   ar
    58    49    48   ar
    59    45    44    2
    60   162   160   am
    61    97    99   ar
    62    71    72    1
    63    44    43    1
    64    48    50   ar
    65    48    47    1
    66    46    43    1
    67    46    47    1
    68    43    42    1
    69   160   161    2
    70   160   159    1
    71   100   101   ar
    72    80    78   ar
    73    80    81   ar
    74    74    73    2
    75    78    76   ar
    76    99   101   ar
    77   123   122    2
    78    72    73    1
    79    72    75    1
    80   159   156    1
    81    81    79   ar
    82   156   155    1
    83   156   157    1
    84   101   102    1
    85    76    75    1
    86    76    77   ar
    87    42    36   am
    88   157   158    2
    89   122   121    1
    90    37    36    2
    91    79    77   ar
    92   168   167    1
    93    36    35    1
    94   125   124    1
    95   114   113    2
    96   120   121    1
    97   164   167    1
    98   164   163    1
    99   164   165    1
   100   167   169    1
   101    41    39   am
   102   121   124    1
   103     8     6   ar
   104   119   117   ar
   105    35    38    1
   106    35    34    1
   107    39    40    2
   108    39    38    1
   109   113   112    1
   110     5     6    1
   111     5     2    1
   112   165   166    2
   113    23    22    2
   114     6     7   ar
   115   117   118   ar
   116   117   116    1
   117    26    28   ar
   118    26    25   ar
   119   115   112    1
   120   115   116    1
   121    28    29   ar
   122   112   111    1
   123    22    21    1
   124    17    19   ar
   125    17    15   ar
   126     2     1    1
   127     2     3    1
   128    19    18   ar
   129   147   149   ar
   130   147   146   ar
   131   149   150   ar
   132    25    24    1
   133    25    27   ar
   134    21    24    1
   135    21    20    1
   136    29    31   ar
   137    29    27   ar
   138    15    14   ar
   139     3     4    2
   140     3     9   am
   141    31    33   ar
   142   146   145    1
   143   146   148   ar
   144   150   152   ar
   145   150   148   ar
   146    27    30   ar
   147    18    16   ar
   148   145   142    1
   149   152   154   ar
   150   148   151   ar
   151     9    10    1
   152    14    16   ar
   153    14    13    1
   154    33    32   ar
   155    30    32   ar
   156   154   153   ar
   157   141   142    1
   158   151   153   ar
   159   142   143    1
   160    10    13    1
   161    10    11    1
   162   143   144    2
   163    11    12    2
