@<TRIPOS>MOLECULE
tmp/2v3fB01.pdb
 153 148 0 0 0
SMALL
GASTEIGER

@<TRIPOS>ATOM
      1  N         28.4200   40.3730  -23.2490 N.3   121  ASP121     -0.1225
      2  CA        28.8180   41.4890  -22.3740 C.3   121  ASP121      0.1805
      3  C         29.7290   42.4530  -23.1170 C.2   121  ASP121      0.2597
      4  O         29.7380   43.6550  -22.8440 O.2   121  ASP121     -0.2718
      5  CB        29.4340   41.0170  -21.0370 C.3   121  ASP121      0.1424
      6  CG        30.6000   40.0690  -21.2300 C.2   121  ASP121      0.3668
      7  OD1       30.4840   39.1330  -22.0590 O.co2 121  ASP121     -0.2456
      8  OD2       31.6280   40.2450  -20.5340 O.co2 121  ASP121     -0.2456
      9  N         30.4460   41.9620  -24.1260 N.am  122  PHE122     -0.1976
     10  CA        31.2230   42.8730  -24.9750 C.3   122  PHE122      0.1639
     11  C         30.3930   43.4510  -26.1170 C.2   122  PHE122      0.2290
     12  O         30.7000   43.3050  -27.3120 O.2   122  PHE122     -0.2864
     13  CB        32.5070   42.2040  -25.4310 C.3   122  PHE122      0.0560
     14  CG        33.5120   42.0930  -24.3150 C.ar  122  PHE122     -0.0200
     15  CD1       33.4760   41.0050  -23.4420 C.ar  122  PHE122     -0.0042
     16  CD2       34.4150   43.1250  -24.0870 C.ar  122  PHE122     -0.0042
     17  CE1       34.3840   40.9100  -22.3810 C.ar  122  PHE122     -0.0003
     18  CE2       35.3280   43.0480  -23.0370 C.ar  122  PHE122     -0.0003
     19  CZ        35.3010   41.9420  -22.1720 C.ar  122  PHE122     -0.0000
     20  N         24.7210   33.7610  -26.7720 N.3   173  TRP173     -0.1241
     21  CA        24.7260   33.9450  -25.3050 C.3   173  TRP173      0.1605
     22  C         23.3200   33.8170  -24.7340 C.2   173  TRP173      0.2264
     23  O         23.0810   33.0280  -23.8070 O.2   173  TRP173     -0.2867
     24  CB        25.3470   35.3050  -24.9240 C.3   173  TRP173      0.0550
     25  CG        26.8880   35.2680  -24.7700 C.ar  173  TRP173      0.0003
     26  CD1       27.5970   35.5400  -23.6220 C.ar  173  TRP173      0.0946
     27  CD2       27.8600   34.9170  -25.7640 C.ar  173  TRP173      0.0152
     28  NE1       28.9450   35.3990  -23.8470 N.ar  173  TRP173     -0.2442
     29  CE2       29.1390   35.0360  -25.1550 C.ar  173  TRP173      0.0810
     30  CE3       27.7870   34.5660  -27.1330 C.ar  173  TRP173      0.0012
     31  CZ2       30.3270   34.7640  -25.8420 C.ar  173  TRP173      0.0191
     32  CZ3       28.9760   34.2940  -27.8130 C.ar  173  TRP173      0.0001
     33  CH2       30.2290   34.4030  -27.1700 C.ar  173  TRP173      0.0015
     34  N         26.7330   29.3760  -25.6420 N.3   228  ASN228     -0.1225
     35  CA        27.9440   29.7720  -24.9120 C.3   228  ASN228      0.1785
     36  C         27.7660   29.5050  -23.4180 C.2   228  ASN228      0.2597
     37  O         26.7620   29.9350  -22.8610 O.2   228  ASN228     -0.2718
     38  CB        28.2440   31.2390  -25.0840 C.3   228  ASN228      0.1169
     39  CG        29.4530   31.6810  -24.2630 C.2   228  ASN228      0.2627
     40  OD1       30.5820   31.3700  -24.6210 O.2   228  ASN228     -0.2716
     41  ND2       29.2120   32.3930  -23.1470 N.am  228  ASN228     -0.0877
     42  N         28.7290   28.8320  -22.7780 N.am  229  GLU229     -0.1979
     43  CA        28.7070   28.6120  -21.3090 C.3   229  GLU229      0.1602
     44  C         27.2990   28.3340  -20.7740 C.2   229  GLU229      0.2287
     45  O         26.7680   29.1330  -19.9930 O.2   229  GLU229     -0.2864
     46  CB        29.3860   29.7590  -20.5380 C.3   229  GLU229      0.0415
     47  CG        30.9000   29.8570  -20.8950 C.3   229  GLU229      0.1163
     48  CD        31.6850   30.9260  -20.1260 C.2   229  GLU229      0.3649
     49  OE1       31.0720   31.6650  -19.3080 O.co2 229  GLU229     -0.2457
     50  OE2       32.9330   30.9890  -20.3410 O.co2 229  GLU229     -0.2457
     51  N         23.5060   35.5740  -12.3620 N.3   238  TYR238     -0.1241
     52  CA        24.6210   35.6080  -13.3470 C.3   238  TYR238      0.1605
     53  C         24.5390   36.8900  -14.1870 C.2   238  TYR238      0.2264
     54  O         23.4790   37.1860  -14.7460 O.2   238  TYR238     -0.2867
     55  CB        24.6060   34.3730  -14.2620 C.3   238  TYR238      0.0534
     56  CG        25.8790   34.2730  -15.0570 C.ar  238  TYR238     -0.0201
     57  CD1       27.0470   33.8230  -14.4680 C.ar  238  TYR238     -0.0009
     58  CD2       25.9160   34.6640  -16.3980 C.ar  238  TYR238     -0.0009
     59  CE1       28.2450   33.7630  -15.2000 C.ar  238  TYR238      0.0417
     60  CE2       27.1020   34.6100  -17.1310 C.ar  238  TYR238      0.0417
     61  CZ        28.2570   34.1510  -16.5270 C.ar  238  TYR238      0.1957
     62  OH        29.4160   34.0810  -17.2720 O.3   238  TYR238     -0.2866
     63  N         25.8940   38.3960  -16.9790 N.3   240  PHE240     -0.1227
     64  CA        26.0560   38.5940  -18.4330 C.3   240  PHE240      0.1736
     65  C         24.9890   37.7970  -19.1450 C.2   240  PHE240      0.2595
     66  O         24.3820   36.9040  -18.5450 O.2   240  PHE240     -0.2718
     67  CB        27.4220   38.0710  -18.8830 C.3   240  PHE240      0.0547
     68  CG        28.5620   38.4560  -17.9570 C.ar  240  PHE240     -0.0202
     69  CD1       29.3810   37.4790  -17.3970 C.ar  240  PHE240     -0.0042
     70  CD2       28.8030   39.7780  -17.6540 C.ar  240  PHE240     -0.0042
     71  CE1       30.4360   37.8290  -16.5410 C.ar  240  PHE240     -0.0003
     72  CE2       29.8570   40.1370  -16.7940 C.ar  240  PHE240     -0.0003
     73  CZ        30.6600   39.1580  -16.2470 C.ar  240  PHE240     -0.0000
     74  N         24.7730   38.0720  -20.4340 N.am  241  GLN241     -0.1979
     75  CA        23.7300   37.3540  -21.1780 C.3   241  GLN241      0.1601
     76  C         24.0180   35.8440  -21.1090 C.2   241  GLN241      0.2287
     77  O         25.1710   35.3970  -21.2420 O.2   241  GLN241     -0.2864
     78  CB        23.6970   37.8290  -22.6490 C.3   241  GLN241      0.0394
     79  CG        23.2030   39.2830  -22.8380 C.3   241  GLN241      0.0908
     80  CD        24.3330   40.2910  -22.8840 C.2   241  GLN241      0.2608
     81  OE1       25.2190   40.2860  -22.0280 O.2   241  GLN241     -0.2717
     82  NE2       24.3100   41.1760  -23.8930 N.am  241  GLN241     -0.0878
     83  N         33.6120   25.4590  -19.4030 N.3   278  GLN278     -0.1245
     84  CA        34.8180   25.0570  -18.6800 C.3   278  GLN278      0.1566
     85  C         35.1450   23.5660  -18.7930 C.2   278  GLN278      0.2260
     86  O         34.2680   22.7060  -18.6960 O.2   278  GLN278     -0.2867
     87  CB        34.7040   25.4690  -17.1860 C.3   278  GLN278      0.0367
     88  CG        34.1140   26.8800  -16.9440 C.3   278  GLN278      0.0905
     89  CD        34.6970   27.9730  -17.8580 C.2   278  GLN278      0.2608
     90  OE1       35.8900   27.9680  -18.1990 O.2   278  GLN278     -0.2717
     91  NE2       33.8400   28.9050  -18.2690 N.am  278  GLN278     -0.0878
     92  N         38.6740   29.1570  -18.3590 N.3   307  TYR307     -0.1241
     93  CA        38.6950   30.1260  -17.2320 C.3   307  TYR307      0.1605
     94  C         38.8540   29.4820  -15.8680 C.2   307  TYR307      0.2264
     95  O         39.3170   30.1220  -14.9160 O.2   307  TYR307     -0.2867
     96  CB        37.4260   30.9700  -17.2500 C.3   307  TYR307      0.0534
     97  CG        37.3510   31.8140  -18.4820 C.ar  307  TYR307     -0.0201
     98  CD1       36.5080   31.4700  -19.5230 C.ar  307  TYR307     -0.0009
     99  CD2       38.1490   32.9550  -18.6200 C.ar  307  TYR307     -0.0009
    100  CE1       36.4690   32.2300  -20.6830 C.ar  307  TYR307      0.0417
    101  CE2       38.0960   33.7100  -19.7500 C.ar  307  TYR307      0.0417
    102  CZ        37.2480   33.3480  -20.7780 C.ar  307  TYR307      0.1957
    103  OH        37.1860   34.1070  -21.9200 O.3   307  TYR307     -0.2866
    104  N         37.3250   29.6790  -26.3370 N.3   334  GLU334     -0.1245
    105  CA        37.4040   31.0080  -25.7410 C.3   334  GLU334      0.1567
    106  C         38.3980   31.0340  -24.6210 C.2   334  GLU334      0.2260
    107  O         38.3340   30.1940  -23.7000 O.2   334  GLU334     -0.2867
    108  CB        36.0560   31.4500  -25.1900 C.3   334  GLU334      0.0388
    109  CG        35.9070   32.9630  -25.0460 C.3   334  GLU334      0.1160
    110  CD        34.7350   33.3480  -24.1750 C.2   334  GLU334      0.3649
    111  OE1       33.5780   33.1720  -24.6060 O.co2 334  GLU334     -0.2457
    112  OE2       34.9760   33.8130  -23.0450 O.co2 334  GLU334     -0.2457
    113  N         40.6170   34.4430  -22.3680 N.3   336  CYS336     -0.1235
    114  CA        41.2650   35.7390  -22.1860 C.3   336  CYS336      0.1677
    115  C         41.8340   35.8740  -20.7540 C.2   336  CYS336      0.2270
    116  O         41.4150   35.1620  -19.8530 O.2   336  CYS336     -0.2867
    117  CB        40.3200   36.9140  -22.5100 C.3   336  CYS336      0.0956
    118  SG        38.9460   37.1000  -21.3480 S.3   336  CYS336     -0.0801
    119  N         40.2260   38.5650  -16.4330 N.3   339  SER339     -0.1217
    120  CA        38.7830   38.5030  -16.1800 C.3   339  SER339      0.1889
    121  C         38.3760   38.1380  -14.7500 C.2   339  SER339      0.2288
    122  O         37.1940   38.1980  -14.4330 O.2   339  SER339     -0.2866
    123  CB        38.0700   37.5380  -17.1320 C.3   339  SER339      0.2089
    124  OG        38.3100   36.1850  -16.7720 O.3   339  SER339     -0.2183
    125  N         39.4690   35.3490  -27.2910 N.3   375  TRP375     -0.1241
    126  CA        38.2360   36.1060  -27.1490 C.3   375  TRP375      0.1605
    127  C         38.3920   37.4330  -27.9510 C.2   375  TRP375      0.2264
    128  O         38.8690   37.3940  -29.0800 O.2   375  TRP375     -0.2867
    129  CB        37.9540   36.2670  -25.6280 C.3   375  TRP375      0.0550
    130  CG        36.6310   36.8380  -25.2050 C.ar  375  TRP375      0.0003
    131  CD1       36.4100   37.5700  -24.0780 C.ar  375  TRP375      0.0946
    132  CD2       35.3580   36.7330  -25.8740 C.ar  375  TRP375      0.0152
    133  NE1       35.0870   37.9260  -23.9910 N.ar  375  TRP375     -0.2442
    134  CE2       34.4170   37.4450  -25.0860 C.ar  375  TRP375      0.0810
    135  CE3       34.9250   36.1330  -27.0700 C.ar  375  TRP375      0.0012
    136  CZ2       33.0610   37.5570  -25.4330 C.ar  375  TRP375      0.0191
    137  CZ3       33.5440   36.2420  -27.4380 C.ar  375  TRP375      0.0001
    138  CH2       32.6420   36.9790  -26.6280 C.ar  375  TRP375      0.0015
    139  N         32.7340   44.5960  -17.3520 N.3   390  ASN390     -0.1240
    140  CA        33.6010   43.4610  -17.1100 C.3   390  ASN390      0.1653
    141  C         34.7960   43.4720  -18.0300 C.2   390  ASN390      0.2266
    142  O         34.9210   42.6270  -18.9140 O.2   390  ASN390     -0.2867
    143  CB        32.8350   42.1450  -17.2430 C.3   390  ASN390      0.1155
    144  CG        33.4120   41.0500  -16.3750 C.2   390  ASN390      0.2627
    145  OD1       34.0080   40.1140  -16.8670 O.2   390  ASN390     -0.2716
    146  ND2       33.2370   41.1800  -15.0530 N.am  390  ASN390     -0.0877
    147  N         38.4530   43.2490  -19.7210 N.3   392  VAL392     -0.1245
    148  CA        39.5230   42.2250  -19.7460 C.3   392  VAL392      0.1561
    149  C         40.6260   42.6630  -20.6950 C.2   392  VAL392      0.2260
    150  O         40.5750   43.7730  -21.1860 O.2   392  VAL392     -0.2867
    151  CB        38.9780   40.8470  -20.2070 C.3   392  VAL392      0.0252
    152  CG1       37.7560   40.4470  -19.3440 C.3   392  VAL392      0.0019
    153  CG2       38.5940   40.8650  -21.7280 C.3   392  VAL392      0.0019
@<TRIPOS>BOND
     1   128   127    2
     2   127   126    1
     3    32    33   ar
     4    32    30   ar
     5   137   135   ar
     6   137   138   ar
     7    12    11    2
     8   125   126    1
     9    33    31   ar
    10   126   129    1
    11    30    27   ar
    12   135   132   ar
    13    20    21    1
    14   138   136   ar
    15   104   105    1
    16    11    10    1
    17   132   130   ar
    18   132   134   ar
    19    31    29   ar
    20    27    29   ar
    21    27    25   ar
    22   105   108    1
    23   105   106    1
    24    34    35    1
    25   129   130    1
    26   136   134   ar
    27    13    10    1
    28    13    14    1
    29    21    24    1
    30    21    22    1
    31   130   131   ar
    32   108   109    1
    33    29    28   ar
    34   134   133   ar
    35    38    35    1
    36    38    39    1
    37   109   110    1
    38    10     9    1
    39    24    25    1
    40    35    36    1
    41    25    26   ar
    42    22    23    2
    43    40    39    2
    44   106   107    2
    45   111   110   ar
    46    14    16   ar
    47    14    15   ar
    48    39    41   am
    49   110   112   ar
    50     9     3   am
    51    16    18   ar
    52   131   133   ar
    53    82    80   am
    54    28    26   ar
    55    15    17   ar
    56    36    37    2
    57    36    42   am
    58     1     2    1
    59     3     4    2
    60     3     2    1
    61    18    19   ar
    62    80    79    1
    63    80    81    2
    64    79    78    1
    65    42    43    1
    66    78    75    1
    67   117   114    1
    68   117   118    1
    69    17    19   ar
    70     2     5    1
    71   113   114    1
    72   114   115    1
    73     7     6   ar
    74   103   102    1
    75   153   151    1
    76    43    44    1
    77    43    46    1
    78    77    76    2
    79     6     5    1
    80     6     8   ar
    81   150   149    2
    82    75    76    1
    83    75    74    1
    84    47    46    1
    85    47    48    1
    86   102   100   ar
    87   102   101   ar
    88    44    45    2
    89   115   116    2
    90   149   148    1
    91   100    98   ar
    92    74    65   am
    93    50    48   ar
    94   151   148    1
    95   151   152    1
    96    48    49   ar
    97   101    99   ar
    98   148   147    1
    99    98    97   ar
   100    83    84    1
   101    65    66    2
   102    65    64    1
   103   142   141    2
   104    67    64    1
   105    67    68    1
   106    85    86    2
   107    85    84    1
   108    84    87    1
   109    99    97   ar
   110    97    96    1
   111    64    63    1
   112    92    93    1
   113    91    89   am
   114    90    89    2
   115   141   140    1
   116    68    70   ar
   117    68    69   ar
   118    89    88    1
   119    70    72   ar
   120    69    71   ar
   121   139   140    1
   122    62    61    1
   123    96    93    1
   124   143   140    1
   125   143   144    1
   126    93    94    1
   127    87    88    1
   128   123   124    1
   129   123   120    1
   130    60    61   ar
   131    60    58   ar
   132   145   144    2
   133    72    73   ar
   134    71    73   ar
   135    61    59   ar
   136   119   120    1
   137    58    56   ar
   138   144   146   am
   139   120   121    1
   140    94    95    2
   141    59    57   ar
   142    56    57   ar
   143    56    55    1
   144   121   122    2
   145    54    53    2
   146    55    52    1
   147    53    52    1
   148    52    51    1
