@<TRIPOS>MOLECULE
tmp/2v3gA00.pdb
 107 105 0 0 0
SMALL
GASTEIGER

@<TRIPOS>ATOM
      1  N         21.7280   23.9540   13.2230 N.3     7  TRP7       -0.1241
      2  CA        22.5130   24.5310   14.3340 C.3     7  TRP7        0.1605
      3  C         22.0960   23.7020   15.5320 C.2     7  TRP7        0.2264
      4  O         20.9050   23.5900   15.8260 O.2     7  TRP7       -0.2867
      5  CB        22.0980   25.9830   14.5410 C.3     7  TRP7        0.0550
      6  CG        22.3670   26.5650   15.8960 C.ar    7  TRP7        0.0003
      7  CD1       21.4240   26.9900   16.7820 C.ar    7  TRP7        0.0946
      8  CD2       23.6420   26.8610   16.4980 C.ar    7  TRP7        0.0152
      9  NE1       22.0270   27.4960   17.9050 N.ar    7  TRP7       -0.2442
     10  CE2       23.3890   27.4080   17.7600 C.ar    7  TRP7        0.0810
     11  CE3       24.9600   26.7010   16.0930 C.ar    7  TRP7        0.0012
     12  CZ2       24.4150   27.7970   18.6230 C.ar    7  TRP7        0.0191
     13  CZ3       25.9740   27.0790   16.9410 C.ar    7  TRP7        0.0001
     14  CH2       25.7030   27.6410   18.1980 C.ar    7  TRP7        0.0015
     15  N         27.7630   29.6700   14.0630 N.3    34  PHE34      -0.1241
     16  CA        27.7840   31.1400   14.0470 C.3    34  PHE34       0.1605
     17  C         29.1180   31.6250   14.5640 C.2    34  PHE34       0.2264
     18  O         29.5850   31.1560   15.6140 O.2    34  PHE34      -0.2867
     19  CB        26.7020   31.7020   14.9650 C.3    34  PHE34       0.0534
     20  CG        25.2860   31.4110   14.5160 C.ar   34  PHE34      -0.0203
     21  CD1       24.5610   32.3480   13.7990 C.ar   34  PHE34      -0.0042
     22  CD2       24.6650   30.2200   14.8120 C.ar   34  PHE34      -0.0042
     23  CE1       23.2580   32.1010   13.3830 C.ar   34  PHE34      -0.0003
     24  CE2       23.3850   29.9570   14.4170 C.ar   34  PHE34      -0.0003
     25  CZ        22.6920   30.9000   13.6930 C.ar   34  PHE34      -0.0000
     26  N         28.9500   36.8730   11.3490 N.3    63  GLU63      -0.1245
     27  CA        28.2430   38.0250   11.9110 C.3    63  GLU63       0.1567
     28  C         29.1720   39.1870   12.2210 C.2    63  GLU63       0.2260
     29  O         29.9380   39.1130   13.1700 O.2    63  GLU63      -0.2867
     30  CB        27.5430   37.6280   13.2170 C.3    63  GLU63       0.0388
     31  CG        26.5080   36.5480   13.0590 C.3    63  GLU63       0.1160
     32  CD        25.7250   36.2900   14.3190 C.2    63  GLU63       0.3649
     33  OE1       26.3040   36.3410   15.4320 O.co2  63  GLU63      -0.2457
     34  OE2       24.5280   36.0220   14.1840 O.co2  63  GLU63      -0.2457
     35  N         29.5090   41.8820   13.9840 N.3    65  TRP65      -0.1241
     36  CA        29.2670   42.7820   15.1090 C.3    65  TRP65       0.1605
     37  C         30.3190   43.8750   15.1730 C.2    65  TRP65       0.2264
     38  O         30.0580   44.9710   15.6280 O.2    65  TRP65      -0.2867
     39  CB        29.2360   42.0000   16.4150 C.3    65  TRP65       0.0550
     40  CG        28.1670   40.9510   16.4840 C.ar   65  TRP65       0.0003
     41  CD1       28.3180   39.6310   16.2400 C.ar   65  TRP65       0.0946
     42  CD2       26.7720   41.1600   16.7530 C.ar   65  TRP65       0.0152
     43  NE1       27.1240   38.9880   16.3850 N.ar   65  TRP65      -0.2442
     44  CE2       26.1460   39.9000   16.6890 C.ar   65  TRP65       0.0810
     45  CE3       25.9950   42.2770   17.0700 C.ar   65  TRP65       0.0012
     46  CZ2       24.8010   39.7230   16.9350 C.ar   65  TRP65       0.0191
     47  CZ3       24.6500   42.0860   17.3010 C.ar   65  TRP65       0.0001
     48  CH2       24.0700   40.8200   17.2370 C.ar   65  TRP65       0.0015
     49  N         20.1900   43.6480   13.8220 N.3   108  TYR108     -0.1241
     50  CA        21.6380   43.5510   13.6820 C.3   108  TYR108      0.1605
     51  C         22.2130   44.8860   13.2310 C.2   108  TYR108      0.2264
     52  O         21.5990   45.6250   12.4600 O.2   108  TYR108     -0.2867
     53  CB        22.0060   42.4860   12.6550 C.3   108  TYR108      0.0534
     54  CG        21.6740   41.0860   13.1060 C.ar  108  TYR108     -0.0201
     55  CD1       22.0820   40.6160   14.3470 C.ar  108  TYR108     -0.0009
     56  CD2       21.0510   40.2000   12.2800 C.ar  108  TYR108     -0.0009
     57  CE1       21.8230   39.3290   14.7620 C.ar  108  TYR108      0.0417
     58  CE2       20.7710   38.9060   12.6910 C.ar  108  TYR108      0.0417
     59  CZ        21.1650   38.4660   13.8980 C.ar  108  TYR108      0.1957
     60  OH        20.8830   37.1750   14.2710 O.3   108  TYR108     -0.2866
     61  N         17.4530   28.8650    8.7580 N.3   215  GLU215     -0.1245
     62  CA        17.0210   28.7120   10.1290 C.3   215  GLU215      0.1567
     63  C         15.5200   28.5450   10.1460 C.2   215  GLU215      0.2260
     64  O         14.8090   29.3840    9.5710 O.2   215  GLU215     -0.2867
     65  CB        17.3310   29.9240   11.0120 C.3   215  GLU215      0.0388
     66  CG        18.7740   30.3290   11.1440 C.3   215  GLU215      0.1160
     67  CD        18.9510   31.5290   12.0500 C.2   215  GLU215      0.3649
     68  OE1       18.0090   31.8480   12.8170 O.co2 215  GLU215     -0.2457
     69  OE2       20.0300   32.1620   12.0100 O.co2 215  GLU215     -0.2457
     70  N         16.9570   25.1870   13.7130 N.3   249  PHE249     -0.1241
     71  CA        17.6380   25.9500   14.7510 C.3   249  PHE249      0.1605
     72  C         17.3210   25.2850   16.0920 C.2   249  PHE249      0.2264
     73  O         16.2730   25.5040   16.6820 O.2   249  PHE249     -0.2867
     74  CB        17.1560   27.3980   14.7350 C.3   249  PHE249      0.0534
     75  CG        17.9330   28.3210   15.6360 C.ar  249  PHE249     -0.0203
     76  CD1       19.0370   28.9920   15.1720 C.ar  249  PHE249     -0.0042
     77  CD2       17.4940   28.5940   16.9090 C.ar  249  PHE249     -0.0042
     78  CE1       19.6870   29.9000   15.9760 C.ar  249  PHE249     -0.0003
     79  CE2       18.1400   29.4880   17.7160 C.ar  249  PHE249     -0.0003
     80  CZ        19.2280   30.1540   17.2530 C.ar  249  PHE249     -0.0000
     81  N         17.8670   25.0430   19.6830 N.3   251  GLU251     -0.1245
     82  CA        18.3750   25.7150   20.8660 C.3   251  GLU251      0.1567
     83  C         17.2040   26.1080   21.7380 C.2   251  GLU251      0.2260
     84  O         16.1740   26.5620   21.2180 O.2   251  GLU251     -0.2867
     85  CB        19.2150   26.9620   20.5030 C.3   251  GLU251      0.0388
     86  CG        20.0320   27.5040   21.6750 C.3   251  GLU251      0.1160
     87  CD        20.8470   28.7330   21.3410 C.2   251  GLU251      0.3649
     88  OE1       21.2110   28.9460   20.1770 O.co2 251  GLU251     -0.2457
     89  OE2       21.1410   29.4950   22.2850 O.co2 251  GLU251     -0.2457
     90  N         16.1080   28.8470   23.6080 N.3   253  LYS253     -0.1231
     91  CA        16.5820   30.2270   23.5600 C.3   253  LYS253      0.1693
     92  C         15.4120   31.1530   23.8420 C.2   253  LYS253      0.2591
     93  O         14.9060   31.1540   24.9700 O.2   253  LYS253     -0.2718
     94  CB        17.3420   30.4850   22.2560 C.3   253  LYS253      0.0285
     95  CG        18.1460   31.7840   22.2450 C.3   253  LYS253      0.0035
     96  CD        18.8750   31.9820   20.9510 C.3   253  LYS253      0.0206
     97  CE        19.6620   33.2750   20.9780 C.3   253  LYS253      0.1093
     98  NZ        20.4120   33.4850   19.7000 N.3   253  LYS253     -0.1314
     99  N         14.9010   31.8800   22.8630 N.am  254  GLU254     -0.1979
    100  CA        13.7770   32.7700   23.0730 C.3   254  GLU254      0.1602
    101  C         12.5480   31.9850   23.4870 C.2   254  GLU254      0.2287
    102  O         11.7300   32.4640   24.2820 O.2   254  GLU254     -0.2864
    103  CB        13.5060   33.5900   21.8200 C.3   254  GLU254      0.0415
    104  CG        14.7050   34.4430   21.3530 C.3   254  GLU254      0.1163
    105  CD        15.6420   33.7570   20.3650 C.2   254  GLU254      0.3649
    106  OE1       15.5900   32.5220   20.2140 O.co2 254  GLU254     -0.2457
    107  OE2       16.4140   34.4910   19.7010 O.co2 254  GLU254     -0.2457
@<TRIPOS>BOND
     1    61    62    1
     2    64    63    2
     3    62    63    1
     4    62    65    1
     5    65    66    1
     6    66    67    1
     7    26    27    1
     8    27    28    1
     9    27    30    1
    10    69    67   ar
    11    67    68   ar
    12    28    29    2
    13    56    58   ar
    14    56    54   ar
    15    52    51    2
    16    53    54    1
    17    53    50    1
    18    58    59   ar
    19    31    30    1
    20    31    32    1
    21    54    55   ar
    22     1     2    1
    23    51    50    1
    24    23    25   ar
    25    23    21   ar
    26    50    49    1
    27    25    24   ar
    28    70    71    1
    29    21    20   ar
    30    59    60    1
    31    59    57   ar
    32    35    36    1
    33    16    15    1
    34    16    17    1
    35    16    19    1
    36    34    32   ar
    37    32    33   ar
    38     2     5    1
    39     2     3    1
    40    55    57   ar
    41    24    22   ar
    42    20    22   ar
    43    20    19    1
    44     5     6    1
    45    17    18    2
    46    74    71    1
    47    74    75    1
    48    71    72    1
    49    36    37    1
    50    36    39    1
    51    76    75   ar
    52    76    78   ar
    53    37    38    2
    54     3     4    2
    55    75    77   ar
    56     6     8   ar
    57     6     7   ar
    58    78    80   ar
    59    72    73    2
    60    11     8   ar
    61    11    13   ar
    62    41    43   ar
    63    41    40   ar
    64    43    44   ar
    65    39    40    1
    66    40    42   ar
    67     8    10   ar
    68    44    42   ar
    69    44    46   ar
    70    42    45   ar
    71     7     9   ar
    72    77    79   ar
    73    46    48   ar
    74    13    14   ar
    75    45    47   ar
    76    48    47   ar
    77    80    79   ar
    78    10     9   ar
    79    10    12   ar
    80    14    12   ar
    81    81    82    1
    82    98    97    1
    83   107   105   ar
    84    88    87   ar
    85   106   105   ar
    86   105   104    1
    87    85    82    1
    88    85    86    1
    89    82    83    1
    90    96    97    1
    91    96    95    1
    92    84    83    2
    93    87    86    1
    94    87    89   ar
    95   104   103    1
    96   103   100    1
    97    95    94    1
    98    94    91    1
    99    99   100    1
   100    99    92   am
   101   100   101    1
   102   101   102    2
   103    91    90    1
   104    91    92    1
   105    92    93    2
