@<TRIPOS>MOLECULE
tmp/2v3gA01.pdb
 151 151 0 0 0
SMALL
GASTEIGER

@<TRIPOS>ATOM
      1  N         27.7630   29.6700   14.0630 N.3    34  PHE34      -0.1241
      2  CA        27.7840   31.1400   14.0470 C.3    34  PHE34       0.1605
      3  C         29.1180   31.6250   14.5640 C.2    34  PHE34       0.2264
      4  O         29.5850   31.1560   15.6140 O.2    34  PHE34      -0.2867
      5  CB        26.7020   31.7020   14.9650 C.3    34  PHE34       0.0534
      6  CG        25.2860   31.4110   14.5160 C.ar   34  PHE34      -0.0203
      7  CD1       24.5610   32.3480   13.7990 C.ar   34  PHE34      -0.0042
      8  CD2       24.6650   30.2200   14.8120 C.ar   34  PHE34      -0.0042
      9  CE1       23.2580   32.1010   13.3830 C.ar   34  PHE34      -0.0003
     10  CE2       23.3850   29.9570   14.4170 C.ar   34  PHE34      -0.0003
     11  CZ        22.6920   30.9000   13.6930 C.ar   34  PHE34      -0.0000
     12  N         28.9500   36.8730   11.3490 N.3    63  GLU63      -0.1245
     13  CA        28.2430   38.0250   11.9110 C.3    63  GLU63       0.1567
     14  C         29.1720   39.1870   12.2210 C.2    63  GLU63       0.2260
     15  O         29.9380   39.1130   13.1700 O.2    63  GLU63      -0.2867
     16  CB        27.5430   37.6280   13.2170 C.3    63  GLU63       0.0388
     17  CG        26.5080   36.5480   13.0590 C.3    63  GLU63       0.1160
     18  CD        25.7250   36.2900   14.3190 C.2    63  GLU63       0.3649
     19  OE1       26.3040   36.3410   15.4320 O.co2  63  GLU63      -0.2457
     20  OE2       24.5280   36.0220   14.1840 O.co2  63  GLU63      -0.2457
     21  N         23.6340   38.4070    7.5810 N.3   101  HIS101     -0.1226
     22  CA        22.3160   37.8090    7.4320 C.3   101  HIS101      0.1752
     23  C         21.2030   38.6640    8.0340 C.2   101  HIS101      0.2595
     24  O         21.4330   39.6210    8.7980 O.2   101  HIS101     -0.2718
     25  CB        22.3200   36.3890    7.9950 C.3   101  HIS101      0.0759
     26  CG        22.2090   36.2690    9.4770 C.ar  101  HIS101      0.0818
     27  ND1       23.1910   36.7330   10.3370 N.ar  101  HIS101     -0.2268
     28  CD2       21.2620   35.6680   10.2360 C.ar  101  HIS101      0.1154
     29  CE1       22.7980   36.4610   11.5660 C.ar  101  HIS101      0.1986
     30  NE2       21.6520   35.7960   11.5370 N.ar  101  HIS101     -0.2212
     31  N         19.9690   38.3100    7.6830 N.am  102  GLU102     -0.1979
     32  CA        18.7630   38.9690    8.1880 C.3   102  GLU102      0.1602
     33  C         18.8560   40.4930    8.0980 C.2   102  GLU102      0.2287
     34  O         18.4170   41.2260    8.9930 O.2   102  GLU102     -0.2864
     35  CB        18.4030   38.5140    9.6120 C.3   102  GLU102      0.0415
     36  CG        17.9390   37.0720    9.6490 C.3   102  GLU102      0.1163
     37  CD        17.7560   36.4990   11.0470 C.2   102  GLU102      0.3649
     38  OE1       17.8250   37.2330   12.0250 O.co2 102  GLU102     -0.2457
     39  OE2       17.5210   35.2710   11.1760 O.co2 102  GLU102     -0.2457
     40  N         17.4640   44.2540   13.8940 N.3   107  TRP107     -0.1227
     41  CA        18.1400   43.8490   15.1210 C.3   107  TRP107      0.1737
     42  C         19.6270   43.7210   15.0080 C.2   107  TRP107      0.2595
     43  O         20.2990   43.7380   16.0280 O.2   107  TRP107     -0.2718
     44  CB        17.5180   42.5720   15.7270 C.3   107  TRP107      0.0564
     45  CG        17.2880   41.4940   14.7130 C.ar  107  TRP107      0.0003
     46  CD1       18.1440   40.5380   14.2860 C.ar  107  TRP107      0.0946
     47  CD2       16.0680   41.2600   14.0030 C.ar  107  TRP107      0.0152
     48  NE1       17.5720   39.7580   13.3280 N.ar  107  TRP107     -0.2442
     49  CE2       16.2870   40.1780   13.1400 C.ar  107  TRP107      0.0810
     50  CE3       14.8110   41.8740   14.0050 C.ar  107  TRP107      0.0012
     51  CZ2       15.2700   39.6810   12.3100 C.ar  107  TRP107      0.0191
     52  CZ3       13.8250   41.3840   13.1730 C.ar  107  TRP107      0.0001
     53  CH2       14.0560   40.3100   12.3390 C.ar  107  TRP107      0.0015
     54  N         20.1900   43.6480   13.8220 N.am  108  TYR108     -0.1976
     55  CA        21.6380   43.5510   13.6820 C.3   108  TYR108      0.1639
     56  C         22.2130   44.8860   13.2310 C.2   108  TYR108      0.2290
     57  O         21.5990   45.6250   12.4600 O.2   108  TYR108     -0.2864
     58  CB        22.0060   42.4860   12.6550 C.3   108  TYR108      0.0560
     59  CG        21.6740   41.0860   13.1060 C.ar  108  TYR108     -0.0198
     60  CD1       22.0820   40.6160   14.3470 C.ar  108  TYR108     -0.0009
     61  CD2       21.0510   40.2000   12.2800 C.ar  108  TYR108     -0.0009
     62  CE1       21.8230   39.3290   14.7620 C.ar  108  TYR108      0.0417
     63  CE2       20.7710   38.9060   12.6910 C.ar  108  TYR108      0.0417
     64  CZ        21.1650   38.4660   13.8980 C.ar  108  TYR108      0.1957
     65  OH        20.8830   37.1750   14.2710 O.3   108  TYR108     -0.2866
     66  N         15.2260   37.5120    6.3790 N.3   150  ASN150     -0.1240
     67  CA        14.2340   37.1440    7.3650 C.3   150  ASN150      0.1653
     68  C         12.8900   36.9660    6.6600 C.2   150  ASN150      0.2266
     69  O         12.6090   37.6160    5.6510 O.2   150  ASN150     -0.2867
     70  CB        14.1030   38.2320    8.4000 C.3   150  ASN150      0.1155
     71  CG        13.3090   37.8120    9.5860 C.2   150  ASN150      0.2627
     72  OD1       12.2510   38.4430    9.9270 O.2   150  ASN150     -0.2716
     73  ND2       13.7350   36.7770   10.2100 N.am  150  ASN150     -0.0877
     74  N         10.4640   31.6050   12.0020 N.3   178  TYR178     -0.1241
     75  CA        10.0850   30.8770   13.1880 C.3   178  TYR178      0.1605
     76  C          8.5920   30.9560   13.4260 C.2   178  TYR178      0.2264
     77  O          7.9690   32.0050   13.2320 O.2   178  TYR178     -0.2867
     78  CB        10.8090   31.4950   14.4240 C.3   178  TYR178      0.0534
     79  CG        12.2770   31.2470   14.4000 C.ar  178  TYR178     -0.0201
     80  CD1       12.8230   30.2210   15.1400 C.ar  178  TYR178     -0.0009
     81  CD2       13.1410   31.9960   13.6020 C.ar  178  TYR178     -0.0009
     82  CE1       14.1880   29.9580   15.1030 C.ar  178  TYR178      0.0417
     83  CE2       14.5080   31.6920   13.5290 C.ar  178  TYR178      0.0417
     84  CZ        15.0090   30.6860   14.2900 C.ar  178  TYR178      0.1957
     85  OH        16.3460   30.3870   14.2890 O.3   178  TYR178     -0.2866
     86  N          6.5690   31.3610   16.3910 N.3   180  TRP180     -0.1241
     87  CA         6.7280   31.7950   17.7750 C.3   180  TRP180      0.1605
     88  C          5.6090   31.3030   18.6820 C.2   180  TRP180      0.2264
     89  O          5.6850   31.4110   19.9030 O.2   180  TRP180     -0.2867
     90  CB         6.7740   33.3260   17.8230 C.3   180  TRP180      0.0550
     91  CG         7.9520   33.8990   17.1610 C.ar  180  TRP180      0.0003
     92  CD1        8.0880   34.2260   15.8370 C.ar  180  TRP180      0.0946
     93  CD2        9.1970   34.2110   17.7620 C.ar  180  TRP180      0.0152
     94  NE1        9.3380   34.6900   15.5840 N.ar  180  TRP180     -0.2442
     95  CE2       10.0340   34.7220   16.7500 C.ar  180  TRP180      0.0810
     96  CE3        9.7000   34.1220   19.0520 C.ar  180  TRP180      0.0012
     97  CZ2       11.3400   35.1190   16.9900 C.ar  180  TRP180      0.0191
     98  CZ3       10.9690   34.5560   19.2780 C.ar  180  TRP180      0.0001
     99  CH2       11.7710   35.0350   18.2600 C.ar  180  TRP180      0.0015
    100  N         17.4530   28.8650    8.7580 N.3   215  GLU215     -0.1245
    101  CA        17.0210   28.7120   10.1290 C.3   215  GLU215      0.1567
    102  C         15.5200   28.5450   10.1460 C.2   215  GLU215      0.2260
    103  O         14.8090   29.3840    9.5710 O.2   215  GLU215     -0.2867
    104  CB        17.3310   29.9240   11.0120 C.3   215  GLU215      0.0388
    105  CG        18.7740   30.3290   11.1440 C.3   215  GLU215      0.1160
    106  CD        18.9510   31.5290   12.0500 C.2   215  GLU215      0.3649
    107  OE1       18.0090   31.8480   12.8170 O.co2 215  GLU215     -0.2457
    108  OE2       20.0300   32.1620   12.0100 O.co2 215  GLU215     -0.2457
    109  N         16.9570   25.1870   13.7130 N.3   249  PHE249     -0.1241
    110  CA        17.6380   25.9500   14.7510 C.3   249  PHE249      0.1605
    111  C         17.3210   25.2850   16.0920 C.2   249  PHE249      0.2264
    112  O         16.2730   25.5040   16.6820 O.2   249  PHE249     -0.2867
    113  CB        17.1560   27.3980   14.7350 C.3   249  PHE249      0.0534
    114  CG        17.9330   28.3210   15.6360 C.ar  249  PHE249     -0.0203
    115  CD1       19.0370   28.9920   15.1720 C.ar  249  PHE249     -0.0042
    116  CD2       17.4940   28.5940   16.9090 C.ar  249  PHE249     -0.0042
    117  CE1       19.6870   29.9000   15.9760 C.ar  249  PHE249     -0.0003
    118  CE2       18.1400   29.4880   17.7160 C.ar  249  PHE249     -0.0003
    119  CZ        19.2280   30.1540   17.2530 C.ar  249  PHE249     -0.0000
    120  N         16.1080   28.8470   23.6080 N.3   253  LYS253     -0.1231
    121  CA        16.5820   30.2270   23.5600 C.3   253  LYS253      0.1693
    122  C         15.4120   31.1530   23.8420 C.2   253  LYS253      0.2591
    123  O         14.9060   31.1540   24.9700 O.2   253  LYS253     -0.2718
    124  CB        17.3420   30.4850   22.2560 C.3   253  LYS253      0.0285
    125  CG        18.1460   31.7840   22.2450 C.3   253  LYS253      0.0035
    126  CD        18.8750   31.9820   20.9510 C.3   253  LYS253      0.0206
    127  CE        19.6620   33.2750   20.9780 C.3   253  LYS253      0.1093
    128  NZ        20.4120   33.4850   19.7000 N.3   253  LYS253     -0.1314
    129  N         14.9010   31.8800   22.8630 N.am  254  GLU254     -0.1979
    130  CA        13.7770   32.7700   23.0730 C.3   254  GLU254      0.1602
    131  C         12.5480   31.9850   23.4870 C.2   254  GLU254      0.2287
    132  O         11.7300   32.4640   24.2820 O.2   254  GLU254     -0.2864
    133  CB        13.5060   33.5900   21.8200 C.3   254  GLU254      0.0415
    134  CG        14.7050   34.4430   21.3530 C.3   254  GLU254      0.1163
    135  CD        15.6420   33.7570   20.3650 C.2   254  GLU254      0.3649
    136  OE1       15.5900   32.5220   20.2140 O.co2 254  GLU254     -0.2457
    137  OE2       16.4140   34.4910   19.7010 O.co2 254  GLU254     -0.2457
    138  N         12.9780   25.9730   21.0050 N.3   257  TRP257     -0.1241
    139  CA        12.9820   25.6290   19.5880 C.3   257  TRP257      0.1605
    140  C         13.4020   24.1860   19.3330 C.2   257  TRP257      0.2264
    141  O         13.2480   23.6890   18.2370 O.2   257  TRP257     -0.2867
    142  CB        13.9710   26.5340   18.8410 C.3   257  TRP257      0.0550
    143  CG        13.7450   27.9870   18.9520 C.ar  257  TRP257      0.0003
    144  CD1       14.6670   28.8910   19.3940 C.ar  257  TRP257      0.0946
    145  CD2       12.5950   28.7470   18.5690 C.ar  257  TRP257      0.0152
    146  NE1       14.1690   30.1580   19.3210 N.ar  257  TRP257     -0.2442
    147  CE2       12.8970   30.1050   18.8170 C.ar  257  TRP257      0.0810
    148  CE3       11.3210   28.4140   18.0910 C.ar  257  TRP257      0.0012
    149  CZ2       12.0140   31.1250   18.5440 C.ar  257  TRP257      0.0191
    150  CZ3       10.4330   29.4470   17.8130 C.ar  257  TRP257      0.0001
    151  CH2       10.7800   30.7820   18.0500 C.ar  257  TRP257      0.0015
@<TRIPOS>BOND
     1    69    68    2
     2    66    67    1
     3    68    67    1
     4    67    70    1
     5    22    21    1
     6    22    25    1
     7    22    23    1
     8    31    23   am
     9    31    32    1
    10    25    26    1
    11    23    24    2
    12    33    32    1
    13    33    34    2
    14    32    35    1
    15    70    71    1
    16   100   101    1
    17    26    28   ar
    18    26    27   ar
    19   103   102    2
    20    71    72    2
    21    71    73   am
    22    35    36    1
    23    36    37    1
    24   101   102    1
    25   101   104    1
    26    28    30   ar
    27    27    29   ar
    28   104   105    1
    29    37    39   ar
    30    37    38   ar
    31   105   106    1
    32    12    13    1
    33    30    29   ar
    34    13    14    1
    35    13    16    1
    36    74    75    1
    37   108   106   ar
    38   106   107   ar
    39    14    15    2
    40    61    63   ar
    41    61    59   ar
    42    51    53   ar
    43    51    49   ar
    44    53    52   ar
    45    57    56    2
    46    58    59    1
    47    58    55    1
    48    63    64   ar
    49    17    16    1
    50    17    18    1
    51    59    60   ar
    52    49    48   ar
    53    49    47   ar
    54    52    50   ar
    55    75    76    1
    56    75    78    1
    57    56    55    1
    58    77    76    2
    59    48    46   ar
    60     9    11   ar
    61     9     7   ar
    62    83    81   ar
    63    83    84   ar
    64    81    79   ar
    65    55    54    1
    66    11    10   ar
    67   109   110    1
    68     7     6   ar
    69    54    42   am
    70    40    41    1
    71    64    65    1
    72    64    62   ar
    73    47    50   ar
    74    47    45   ar
    75     2     1    1
    76     2     3    1
    77     2     5    1
    78    20    18   ar
    79    46    45   ar
    80    85    84    1
    81    84    82   ar
    82    18    19   ar
    83    60    62   ar
    84    79    78    1
    85    79    80   ar
    86    10     8   ar
    87     6     8   ar
    88     6     5    1
    89     3     4    2
    90    45    44    1
    91   113   110    1
    92   113   114    1
    93   110   111    1
    94    42    41    1
    95    42    43    2
    96    82    80   ar
    97    41    44    1
    98   115   114   ar
    99   115   117   ar
   100    94    92   ar
   101    94    95   ar
   102   114   116   ar
   103    92    91   ar
   104   117   119   ar
   105   111   112    2
   106    86    87    1
   107    95    97   ar
   108    95    93   ar
   109   116   118   ar
   110    97    99   ar
   111    91    93   ar
   112    91    90    1
   113   119   118   ar
   114    93    96   ar
   115    87    90    1
   116    87    88    1
   117   150   151   ar
   118   150   148   ar
   119   151   149   ar
   120   148   145   ar
   121   141   140    2
   122    99    98   ar
   123   149   147   ar
   124   145   147   ar
   125   145   143   ar
   126    88    89    2
   127   147   146   ar
   128   142   143    1
   129   142   139    1
   130   143   144   ar
   131    96    98   ar
   132   146   144   ar
   133   140   139    1
   134   139   138    1
   135   128   127    1
   136   137   135   ar
   137   136   135   ar
   138   135   134    1
   139   126   127    1
   140   126   125    1
   141   134   133    1
   142   133   130    1
   143   125   124    1
   144   124   121    1
   145   129   130    1
   146   129   122   am
   147   130   131    1
   148   131   132    2
   149   121   120    1
   150   121   122    1
   151   122   123    2
