@<TRIPOS>MOLECULE
tmp/2v3hA01.pdb
 191 191 0 0 0
SMALL
GASTEIGER

@<TRIPOS>ATOM
      1  N         22.8730   -6.1850   18.0370 N.3    43  HIS43      -0.1241
      2  CA        22.7730   -7.5900   17.5840 C.3    43  HIS43       0.1621
      3  C         21.9730   -7.6950   16.2870 C.2    43  HIS43       0.2264
      4  O         21.9930   -8.7280   15.6200 O.2    43  HIS43      -0.2867
      5  CB        22.2380   -8.5510   18.6890 C.3    43  HIS43       0.0745
      6  CG        20.7470   -8.6810   18.7200 C.ar   43  HIS43       0.0817
      7  ND1       19.9550   -7.9520   19.5780 N.ar   43  HIS43      -0.2268
      8  CD2       19.9040   -9.4550   17.9900 C.ar   43  HIS43       0.1154
      9  CE1       18.6870   -8.2570   19.3640 C.ar   43  HIS43       0.1986
     10  NE2       18.6290   -9.1680   18.4020 N.ar   43  HIS43      -0.2212
     11  N         26.3050  -10.1890   15.0580 N.3    47  TYR47      -0.1241
     12  CA        26.1080  -11.3200   15.9610 C.3    47  TYR47       0.1605
     13  C         26.8410  -12.5560   15.4360 C.2    47  TYR47       0.2264
     14  O         26.2510  -13.4090   14.7710 O.2    47  TYR47      -0.2867
     15  CB        24.6150  -11.5850   16.2410 C.3    47  TYR47       0.0534
     16  CG        24.4210  -12.4790   17.4400 C.ar   47  TYR47      -0.0201
     17  CD1       24.8270  -12.0700   18.7220 C.ar   47  TYR47      -0.0009
     18  CD2       23.8850  -13.7510   17.2920 C.ar   47  TYR47      -0.0009
     19  CE1       24.6910  -12.9170   19.8340 C.ar   47  TYR47       0.0417
     20  CE2       23.7560  -14.6190   18.4040 C.ar   47  TYR47       0.0417
     21  CZ        24.1530  -14.1900   19.6680 C.ar   47  TYR47       0.1957
     22  OH        23.9910  -15.0510   20.7610 O.3    47  TYR47      -0.2866
     23  N         25.6790  -16.3690   15.0660 N.3    50  TRP50      -0.1241
     24  CA        24.7700  -16.6780   13.9540 C.3    50  TRP50       0.1605
     25  C         25.3360  -16.2430   12.5920 C.2    50  TRP50       0.2264
     26  O         24.5870  -16.1560   11.6070 O.2    50  TRP50      -0.2867
     27  CB        23.4060  -16.0040   14.1620 C.3    50  TRP50       0.0550
     28  CG        22.6000  -16.4240   15.3830 C.ar   50  TRP50       0.0003
     29  CD1       22.8090  -17.5110   16.1950 C.ar   50  TRP50       0.0946
     30  CD2       21.4300  -15.7630   15.8930 C.ar   50  TRP50       0.0152
     31  NE1       21.8440  -17.5480   17.1880 N.ar   50  TRP50      -0.2442
     32  CE2       20.9870  -16.4940   17.0180 C.ar   50  TRP50       0.0810
     33  CE3       20.7110  -14.6170   15.5000 C.ar   50  TRP50       0.0012
     34  CZ2       19.8550  -16.1110   17.7710 C.ar   50  TRP50       0.0191
     35  CZ3       19.5830  -14.2290   16.2480 C.ar   50  TRP50       0.0001
     36  CH2       19.1700  -14.9830   17.3710 C.ar   50  TRP50       0.0015
     37  N         26.1140  -13.3190   11.6640 N.3    52  LYS52      -0.1245
     38  CA        25.4870  -12.0750   11.2290 C.3    52  LYS52       0.1561
     39  C         26.5040  -10.9520   11.3120 C.2    52  LYS52       0.2260
     40  O         27.0650  -10.6760   12.3790 O.2    52  LYS52      -0.2867
     41  CB        24.2840  -11.7520   12.1000 C.3    52  LYS52       0.0271
     42  CG        23.5830  -10.4790   11.6590 C.3    52  LYS52       0.0035
     43  CD        22.5810  -10.0030   12.7040 C.3    52  LYS52       0.0206
     44  CE        21.4360  -11.0090   12.8600 C.3    52  LYS52       0.1093
     45  NZ        20.3730  -10.4120   13.7200 N.3    52  LYS52      -0.1314
     46  N         24.5060  -10.0440   25.6480 N.3    96  LEU96      -0.1245
     47  CA        24.1390   -8.8370   24.8790 C.3    96  LEU96       0.1561
     48  C         24.1840   -7.5420   25.7270 C.2    96  LEU96       0.2260
     49  O         23.3700   -6.6260   25.5350 O.2    96  LEU96      -0.2867
     50  CB        22.7750   -8.9620   24.1980 C.3    96  LEU96       0.0270
     51  CG        22.4520  -10.1300   23.2810 C.3    96  LEU96       0.0019
     52  CD1       21.1090   -9.9070   22.5900 C.3    96  LEU96       0.0001
     53  CD2       23.5390  -10.4370   22.2770 C.3    96  LEU96       0.0001
     54  N          4.3070   -9.1380   24.7280 N.3   192  ASP192     -0.1225
     55  CA         5.7590   -9.2010   24.6470 C.3   192  ASP192      0.1805
     56  C          6.1980   -8.7920   23.2410 C.2   192  ASP192      0.2598
     57  O          5.4120   -8.8680   22.2940 O.2   192  ASP192     -0.2718
     58  CB         6.2190  -10.6460   24.9350 C.3   192  ASP192      0.1424
     59  CG         7.6930  -10.7470   25.3260 C.2   192  ASP192      0.3668
     60  OD1        8.3670   -9.7050   25.4910 O.co2 192  ASP192     -0.2456
     61  OD2        8.1810  -11.8980   25.4960 O.co2 192  ASP192     -0.2456
     62  N          7.4560   -8.3740   23.1270 N.am  193  ALA193     -0.1966
     63  CA         8.1460   -8.3210   21.8370 C.3   193  ALA193      0.1728
     64  C          8.5410   -9.7570   21.4170 C.2   193  ALA193      0.2616
     65  O          8.4350  -10.7190   22.2050 O.2   193  ALA193     -0.2715
     66  CB         9.3820   -7.4430   21.9460 C.3   193  ALA193      0.0334
     67  N          8.9650   -9.9260   20.1660 N.am  194  CYS194     -0.1954
     68  CA         9.3260  -11.2560   19.6760 C.3   194  CYS194      0.1843
     69  C         10.3600  -11.1240   18.5680 C.2   194  CYS194      0.2625
     70  O         10.7670  -10.0150   18.2550 O.2   194  CYS194     -0.2714
     71  CB         8.0730  -12.0160   19.1990 C.3   194  CYS194      0.0997
     72  SG         8.2770  -13.8280   19.1740 S.3   194  CYS194     -0.0797
     73  N         10.7890  -12.2510   17.9960 N.am  195  GLU195     -0.1963
     74  CA        11.6860  -12.2330   16.8420 C.3   195  GLU195      0.1733
     75  C         11.1790  -11.2340   15.7930 C.2   195  GLU195      0.2616
     76  O         10.0010  -11.2670   15.4250 O.2   195  GLU195     -0.2715
     77  CB        11.7540  -13.6360   16.2370 C.3   195  GLU195      0.0429
     78  CG        12.7990  -13.8390   15.1530 C.3   195  GLU195      0.1163
     79  CD        12.7250  -15.2360   14.5360 C.2   195  GLU195      0.3649
     80  OE1       12.3500  -16.1910   15.2450 O.co2 195  GLU195     -0.2457
     81  OE2       13.0330  -15.3730   13.3380 O.co2 195  GLU195     -0.2457
     82  N         12.0710  -10.3670   15.3130 N.am  196  GLY196     -0.1955
     83  CA        11.7280   -9.3390   14.3160 C.3   196  GLY196      0.1869
     84  C         11.4920   -7.9650   14.9170 C.2   196  GLY196      0.2309
     85  O         11.5020   -6.9430   14.2000 O.2   196  GLY196     -0.2863
     86  N         13.4470   -6.8250   17.5950 N.3   198  SER198     -0.1217
     87  CA        14.6760   -6.3290   18.2200 C.3   198  SER198      0.1889
     88  C         15.0730   -5.0460   17.5660 C.2   198  SER198      0.2288
     89  O         14.8420   -4.8810   16.3630 O.2   198  SER198     -0.2866
     90  CB        15.8290   -7.3420   18.0950 C.3   198  SER198      0.2089
     91  OG        15.5820   -8.4850   18.8930 O.3   198  SER198     -0.2183
     92  N         14.4040   -2.7480   22.3010 N.3   218  VAL218     -0.1231
     93  CA        14.1600   -4.2070   22.3330 C.3   218  VAL218      0.1692
     94  C         15.4640   -4.9820   22.1390 C.2   218  VAL218      0.2593
     95  O         16.1140   -4.8690   21.0900 O.2   218  VAL218     -0.2718
     96  CB        13.1180   -4.6600   21.2670 C.3   218  VAL218      0.0266
     97  CG1       12.8700   -6.1640   21.3480 C.3   218  VAL218      0.0020
     98  CG2       11.8110   -3.8820   21.4330 C.3   218  VAL218      0.0020
     99  N         15.8510   -5.7610   23.1370 N.am  219  SER219     -0.1938
    100  CA        17.1090   -6.5220   23.0350 C.3   219  SER219      0.2055
    101  C         16.8540   -8.0200   22.8450 C.2   219  SER219      0.2643
    102  O         16.9410   -8.5220   21.7220 O.2   219  SER219     -0.2714
    103  CB        18.0440   -6.2530   24.2380 C.3   219  SER219      0.2130
    104  OG        19.2910   -6.8970   24.0500 O.3   219  SER219     -0.2179
    105  N         16.5010   -8.7320   23.9190 N.am  220  TRP220     -0.1959
    106  CA        16.3570  -10.1850   23.8450 C.3   220  TRP220      0.1771
    107  C         15.2750  -10.7200   24.7910 C.2   220  TRP220      0.2620
    108  O         14.7330   -9.9930   25.6260 O.2   220  TRP220     -0.2715
    109  CB        17.7090  -10.8640   24.1930 C.3   220  TRP220      0.0590
    110  CG        18.1840  -10.5450   25.6340 C.ar  220  TRP220      0.0006
    111  CD1       18.8370   -9.4190   26.0570 C.ar  220  TRP220      0.0946
    112  CD2       18.0060  -11.3620   26.8090 C.ar  220  TRP220      0.0152
    113  NE1       19.0810   -9.4840   27.4200 N.ar  220  TRP220     -0.2442
    114  CE2       18.5900  -10.6700   27.9000 C.ar  220  TRP220      0.0810
    115  CE3       17.4350  -12.6260   27.0380 C.ar  220  TRP220      0.0012
    116  CZ2       18.6120  -11.1950   29.2120 C.ar  220  TRP220      0.0191
    117  CZ3       17.4410  -13.1420   28.3530 C.ar  220  TRP220      0.0001
    118  CH2       18.0330  -12.4250   29.4150 C.ar  220  TRP220      0.0015
    119  N         15.0070  -12.0110   24.6570 N.am  221  GLY221     -0.1940
    120  CA        14.0840  -12.7070   25.5510 C.3   221  GLY221      0.2014
    121  C         14.1820  -14.1910   25.2600 C.2   221  GLY221      0.2639
    122  O         14.7970  -14.6130   24.2660 O.2   221  GLY221     -0.2714
    123  N         13.6010  -14.9960   26.1350 N.am  222  GLU222     -0.1963
    124  CA        13.6970  -16.4260   25.9940 C.3   222  GLU222      0.1733
    125  C         12.3110  -16.9220   25.5890 C.2   222  GLU222      0.2617
    126  O         11.3950  -16.9800   26.3990 O.2   222  GLU222     -0.2715
    127  CB        14.2500  -17.0570   27.2830 C.3   222  GLU222      0.0429
    128  CG        15.6860  -16.5920   27.5960 C.3   222  GLU222      0.1163
    129  CD        16.1760  -16.9720   28.9910 C.2   222  GLU222      0.3649
    130  OE1       15.6270  -16.4720   29.9830 O.co2 222  GLU222     -0.2457
    131  OE2       17.1390  -17.7560   29.0870 O.co2 222  GLU222     -0.2457
    132  N         12.1600  -17.2130   24.3020 N.am  223  GLY223     -0.1940
    133  CA        10.8460  -17.4300   23.7170 C.3   223  GLY223      0.2014
    134  C         10.1310  -16.0870   23.6290 C.2   223  GLY223      0.2639
    135  O         10.7760  -15.0430   23.6950 O.2   223  GLY223     -0.2714
    136  N          8.8090  -16.1100   23.4670 N.am  224  CYS224     -0.1967
    137  CA         8.0110  -14.8800   23.5060 C.3   224  CYS224      0.1712
    138  C          6.7190  -15.0610   24.2780 C.2   224  CYS224      0.2296
    139  O          5.9970  -16.0370   24.0710 O.2   224  CYS224     -0.2864
    140  CB         7.7010  -14.3660   22.0950 C.3   224  CYS224      0.0983
    141  SG         9.1080  -14.3530   20.9730 S.3   224  CYS224     -0.0798
    142  N          6.0440  -15.9600   27.3000 N.3   226  ARG226     -0.1245
    143  CA         5.9270  -17.1050   28.1940 C.3   226  ARG226      0.1563
    144  C          5.6180  -16.6350   29.6220 C.2   226  ARG226      0.2260
    145  O          6.1340  -15.6020   30.0630 O.2   226  ARG226     -0.2867
    146  CB         7.2300  -17.9190   28.2040 C.3   226  ARG226      0.0307
    147  CG         7.5990  -18.5920   26.8930 C.3   226  ARG226      0.0489
    148  CD         8.8850  -19.3800   27.0620 C.3   226  ARG226      0.2205
    149  NE         9.3730  -19.9110   25.7960 N.pl3 226  ARG226     -0.0865
    150  CZ        10.5940  -20.3970   25.5980 C.cat 226  ARG226      0.5346
    151  NH1       11.4810  -20.4360   26.5960 N.pl3 226  ARG226      0.1354
    152  NH2       10.9330  -20.8410   24.3910 N.pl3 226  ARG226      0.1354
    153  N         10.2710  -12.4710   30.9480 N.3   230  TYR230     -0.1227
    154  CA        10.1230  -11.0370   30.7170 C.3   230  TYR230      0.1736
    155  C         11.0220  -10.6570   29.5570 C.2   230  TYR230      0.2596
    156  O         11.9970  -11.3490   29.3100 O.2   230  TYR230     -0.2718
    157  CB        10.5160  -10.2350   31.9830 C.3   230  TYR230      0.0548
    158  CG         9.6360  -10.6430   33.1270 C.ar  230  TYR230     -0.0200
    159  CD1        8.3610  -10.0840   33.2570 C.ar  230  TYR230     -0.0009
    160  CD2       10.0290  -11.6630   34.0110 C.ar  230  TYR230     -0.0009
    161  CE1        7.4930  -10.5210   34.2870 C.ar  230  TYR230      0.0417
    162  CE2        9.1820  -12.0860   35.0130 C.ar  230  TYR230      0.0417
    163  CZ         7.9250  -11.4960   35.1530 C.ar  230  TYR230      0.1957
    164  OH         7.0810  -11.9430   36.1700 O.3   230  TYR230     -0.2866
    165  N         10.6590   -9.6130   28.8190 N.am  231  GLY231     -0.1942
    166  CA        11.5280   -9.1070   27.7370 C.3   231  GLY231      0.2014
    167  C         12.6220   -8.2590   28.3210 C.2   231  GLY231      0.2639
    168  O         12.3900   -7.5540   29.2960 O.2   231  GLY231     -0.2714
    169  N         13.8090   -8.3200   27.7230 N.am  232  PHE232     -0.1959
    170  CA        14.9130   -7.5300   28.2030 C.3   232  PHE232      0.1771
    171  C         15.1990   -6.4380   27.2110 C.2   232  PHE232      0.2619
    172  O         15.0710   -6.6670   26.0230 O.2   232  PHE232     -0.2715
    173  CB        16.1090   -8.4180   28.4820 C.3   232  PHE232      0.0574
    174  CG        15.9200   -9.2180   29.7360 C.ar  232  PHE232     -0.0200
    175  CD1       15.1790  -10.3900   29.7200 C.ar  232  PHE232     -0.0042
    176  CD2       16.3700   -8.7160   30.9640 C.ar  232  PHE232     -0.0042
    177  CE1       14.9560  -11.1070   30.8930 C.ar  232  PHE232     -0.0003
    178  CE2       16.1540   -9.4280   32.1500 C.ar  232  PHE232     -0.0003
    179  CZ        15.4330  -10.6140   32.1130 C.ar  232  PHE232     -0.0000
    180  N         15.4970   -5.2540   27.7550 N.am  233  TYR233     -0.1974
    181  CA        15.6340   -4.0200   26.9960 C.3   233  TYR233      0.1639
    182  C         16.9360   -3.3250   27.3370 C.2   233  TYR233      0.2290
    183  O         17.3390   -3.2830   28.5010 O.2   233  TYR233     -0.2864
    184  CB        14.4450   -3.0750   27.2940 C.3   233  TYR233      0.0560
    185  CG        13.1360   -3.6810   26.8800 C.ar  233  TYR233     -0.0198
    186  CD1       12.4790   -4.6010   27.7230 C.ar  233  TYR233     -0.0009
    187  CD2       12.5390   -3.3470   25.6450 C.ar  233  TYR233     -0.0009
    188  CE1       11.2820   -5.2060   27.3330 C.ar  233  TYR233      0.0417
    189  CE2       11.3360   -3.9490   25.2360 C.ar  233  TYR233      0.0417
    190  CZ        10.7210   -4.8680   26.0910 C.ar  233  TYR233      0.1957
    191  OH         9.5420   -5.4470   25.7000 O.3   233  TYR233     -0.2866
@<TRIPOS>BOND
     1    38    39    1
     2    38    37    1
     3    38    41    1
     4    39    40    2
     5    26    25    2
     6    42    41    1
     7    42    43    1
     8    25    24    1
     9    43    44    1
    10    44    45    1
    11    81    79   ar
    12    24    27    1
    13    24    23    1
    14    27    28    1
    15    85    84    2
    16    83    84    1
    17    83    82    1
    18    79    78    1
    19    79    80   ar
    20    14    13    2
    21    11    12    1
    22    78    77    1
    23    82    75   am
    24    28    30   ar
    25    28    29   ar
    26    76    75    2
    27    13    12    1
    28    33    30   ar
    29    33    35   ar
    30     4     3    2
    31    75    74    1
    32    30    32   ar
    33    12    15    1
    34    29    31   ar
    35    77    74    1
    36    15    16    1
    37    35    36   ar
    38     3     2    1
    39    89    88    2
    40    74    73    1
    41    32    31   ar
    42    32    34   ar
    43    18    16   ar
    44    18    20   ar
    45    36    34   ar
    46    16    17   ar
    47    88    87    1
    48     2     1    1
    49     2     5    1
    50    86    87    1
    51     8    10   ar
    52     8     6   ar
    53    73    69   am
    54    90    87    1
    55    90    91    1
    56    70    69    2
    57    10     9   ar
    58    20    21   ar
    59    69    68    1
    60     5     6    1
    61     6     7   ar
    62    17    19   ar
    63    72    71    1
    64    72   141    1
    65    71    68    1
    66     9     7   ar
    67    21    19   ar
    68    21    22    1
    69    68    67    1
    70    67    64   am
    71   141   140    1
    72    95    94    2
    73    96    97    1
    74    96    98    1
    75    96    93    1
    76    64    63    1
    77    64    65    2
    78   102   101    2
    79    63    66    1
    80    63    62    1
    81   140   137    1
    82    94    93    1
    83    94    99   am
    84    53    51    1
    85    57    56    2
    86    92    93    1
    87    52    51    1
    88   101   100    1
    89   101   105   am
    90   100    99    1
    91   100   103    1
    92    62    56   am
    93    56    55    1
    94    51    50    1
    95   136   137    1
    96   136   134   am
    97   137   138    1
    98   134   135    2
    99   134   133    1
   100   133   132    1
   101   106   105    1
   102   106   109    1
   103   106   107    1
   104   104   103    1
   105   139   138    2
   106   109   110    1
   107    50    47    1
   108   122   121    2
   109   132   125   am
   110   152   150    1
   111    55    54    1
   112    55    58    1
   113   119   107   am
   114   119   120    1
   115   107   108    2
   116    47    46    1
   117    47    48    1
   118    58    59    1
   119   189   187   ar
   120   189   190   ar
   121   121   120    1
   122   121   123   am
   123    59    60   ar
   124    59    61   ar
   125    49    48    2
   126   125   124    1
   127   125   126    2
   128   150   149    2
   129   150   151    1
   130   110   111   ar
   131   110   112   ar
   132   187   185   ar
   133   191   190    1
   134   149   148    1
   135   124   123    1
   136   124   127    1
   137   172   171    2
   138   111   113   ar
   139   190   188   ar
   140   112   115   ar
   141   112   114   ar
   142   185   184    1
   143   185   186   ar
   144   147   148    1
   145   147   146    1
   146   181   184    1
   147   181   182    1
   148   181   180    1
   149   115   117   ar
   150   171   180   am
   151   171   170    1
   152   127   128    1
   153   142   143    1
   154   188   186   ar
   155   182   183    2
   156   113   114   ar
   157   128   129    1
   158   169   170    1
   159   169   167   am
   160   166   167    1
   161   166   165    1
   162   114   116   ar
   163   143   146    1
   164   143   144    1
   165   170   173    1
   166   167   168    2
   167   117   118   ar
   168   173   174    1
   169   165   155   am
   170   129   131   ar
   171   129   130   ar
   172   116   118   ar
   173   156   155    2
   174   155   154    1
   175   144   145    2
   176   175   174   ar
   177   175   177   ar
   178   174   176   ar
   179   154   153    1
   180   154   157    1
   181   177   179   ar
   182   176   178   ar
   183   157   158    1
   184   179   178   ar
   185   158   159   ar
   186   158   160   ar
   187   159   161   ar
   188   160   162   ar
   189   161   163   ar
   190   162   163   ar
   191   163   164    1
