@<TRIPOS>MOLECULE
tmp/2v3hA00.pdb
 122 116 0 0 0
SMALL
GASTEIGER

@<TRIPOS>ATOM
      1  N         12.0080    0.7840   10.1210 N.3    17  MET17      -0.1245
      2  CA        12.2000   -0.5940    9.6980 C.3    17  MET17       0.1570
      3  C         13.5710   -0.7150    9.0650 C.2    17  MET17       0.2261
      4  O         13.8830    0.0380    8.1460 O.2    17  MET17      -0.2867
      5  CB        11.1180   -1.0330    8.6800 C.3    17  MET17       0.0387
      6  CG        11.3190   -2.4570    8.1610 C.3    17  MET17       0.0595
      7  SD        10.1510   -2.9730    6.8680 S.3    17  MET17      -0.1393
      8  CE         8.5920   -3.0220    7.7850 C.3    17  MET17       0.0692
      9  N         15.7420   -2.9720    6.7540 N.3    19  PHE19      -0.1241
     10  CA        15.2400   -3.7870    5.6560 C.3    19  PHE19       0.1605
     11  C         16.4110   -4.3220    4.8540 C.2    19  PHE19       0.2264
     12  O         17.1790   -3.5640    4.2840 O.2    19  PHE19      -0.2867
     13  CB        14.2930   -2.9600    4.7800 C.3    19  PHE19       0.0534
     14  CG        13.6030   -3.7400    3.7010 C.ar   19  PHE19      -0.0203
     15  CD1       12.5580   -4.6150    3.9980 C.ar   19  PHE19      -0.0042
     16  CD2       13.9780   -3.5750    2.3710 C.ar   19  PHE19      -0.0042
     17  CE1       11.9260   -5.3250    2.9840 C.ar   19  PHE19      -0.0003
     18  CE2       13.3310   -4.2710    1.3550 C.ar   19  PHE19      -0.0003
     19  CZ        12.3030   -5.1360    1.6650 C.ar   19  PHE19      -0.0000
     20  N         15.0910   -9.5980    0.1590 N.3    24  GLN24      -0.1231
     21  CA        14.1970   -8.6230    0.7870 C.3    24  GLN24       0.1698
     22  C         13.4960   -9.2620    1.9790 C.2    24  GLN24       0.2592
     23  O         12.7440  -10.2290    1.8190 O.2    24  GLN24      -0.2718
     24  CB        13.1520   -8.1030   -0.2130 C.3    24  GLN24       0.0381
     25  CG        13.6670   -7.1090   -1.2750 C.3    24  GLN24       0.0905
     26  CD        12.5830   -6.1210   -1.7490 C.2    24  GLN24       0.2608
     27  OE1       12.8740   -5.1390   -2.4410 O.2    24  GLN24      -0.2717
     28  NE2       11.3340   -6.3680   -1.3550 N.am   24  GLN24      -0.0878
     29  N         13.7530   -8.7240    3.1740 N.am   25  GLU25      -0.1966
     30  CA        13.1310   -9.2250    4.3970 C.3    25  GLU25       0.1733
     31  C         13.3040   -8.2310    5.5450 C.2    25  GLU25       0.2616
     32  O         14.1660   -7.3640    5.5040 O.2    25  GLU25      -0.2715
     33  CB        13.7100  -10.5840    4.7930 C.3    25  GLU25       0.0429
     34  CG        15.1860  -10.5530    5.1220 C.3    25  GLU25       0.1163
     35  CD        15.7510  -11.9350    5.4160 C.2    25  GLU25       0.3649
     36  OE1       15.1700  -12.9430    4.9540 O.co2  25  GLU25      -0.2457
     37  OE2       16.7800  -12.0070    6.1120 O.co2  25  GLU25      -0.2457
     38  N         12.4740   -8.3630    6.5650 N.am   26  LEU26      -0.1977
     39  CA        12.6120   -7.5290    7.7590 C.3    26  LEU26       0.1596
     40  C         13.8800   -7.9550    8.5080 C.2    26  LEU26       0.2287
     41  O         14.0530   -9.1420    8.8070 O.2    26  LEU26      -0.2864
     42  CB        11.3880   -7.6910    8.6590 C.3    26  LEU26       0.0297
     43  CG        11.4820   -7.0950   10.0670 C.3    26  LEU26       0.0022
     44  CD1       11.3270   -5.5680   10.0470 C.3    26  LEU26       0.0001
     45  CD2       10.4650   -7.7060   11.0200 C.3    26  LEU26       0.0001
     46  N         18.6600   -1.1190    4.0290 N.3    60  LEU60      -0.1245
     47  CA        18.0210    0.1830    3.8490 C.3    60  LEU60       0.1561
     48  C         17.2380    0.4810    5.0980 C.2    60  LEU60       0.2260
     49  O         16.8910   -0.4360    5.8470 O.2    60  LEU60      -0.2867
     50  CB        17.0470    0.1460    2.6640 C.3    60  LEU60       0.0270
     51  CG        17.5600   -0.0670    1.2520 C.3    60  LEU60       0.0019
     52  CD1       16.4000   -0.3910    0.2930 C.3    60  LEU60       0.0001
     53  CD2       18.3360    1.1580    0.7460 C.3    60  LEU60       0.0001
     54  N         13.6840    2.2250    6.3300 N.3    62  ARG62      -0.1245
     55  CA        12.3490    2.6280    5.8650 C.3    62  ARG62       0.1563
     56  C         11.6180    3.2850    7.0250 C.2    62  ARG62       0.2260
     57  O         11.4380    2.6750    8.1070 O.2    62  ARG62      -0.2867
     58  CB        11.5460    1.4370    5.3050 C.3    62  ARG62       0.0307
     59  CG        12.3520    0.5760    4.3130 C.3    62  ARG62       0.0489
     60  CD        11.5860   -0.6430    3.7570 C.3    62  ARG62       0.2205
     61  NE        10.3560   -0.3270    3.0130 N.pl3  62  ARG62      -0.0865
     62  CZ         9.6450   -1.2040    2.3070 C.cat  62  ARG62       0.5346
     63  NH1       10.0640   -2.4600    2.1730 N.pl3  62  ARG62       0.1354
     64  NH2        8.5300   -0.8110    1.6910 N.pl3  62  ARG62       0.1354
     65  N          3.4450   -3.5710    7.0400 N.3    68  ARG68      -0.1231
     66  CA         4.6950   -4.3380    7.0020 C.3    68  ARG68       0.1694
     67  C          5.2250   -4.4940    5.5750 C.2    68  ARG68       0.2593
     68  O          6.3650   -4.1080    5.2810 O.2    68  ARG68      -0.2718
     69  CB         4.4960   -5.7050    7.6640 C.3    68  ARG68       0.0321
     70  CG         5.7950   -6.5650    7.8030 C.3    68  ARG68       0.0489
     71  CD         5.5800   -7.8990    8.5260 C.3    68  ARG68       0.2205
     72  NE         4.6120   -8.7580    7.8410 N.pl3  68  ARG68      -0.0865
     73  CZ         4.9050   -9.6440    6.8840 C.cat  68  ARG68       0.5346
     74  NH1        6.1600   -9.8560    6.4930 N.pl3  68  ARG68       0.1354
     75  NH2        3.9290  -10.3510    6.3220 N.pl3  68  ARG68       0.1354
     76  N          4.3920   -5.0300    4.6860 N.am   69  THR69      -0.1939
     77  CA         4.8860   -5.5190    3.3810 C.3    69  THR69       0.2028
     78  C          4.7360   -4.5620    2.1850 C.2    69  THR69       0.2642
     79  O          5.4880   -4.6710    1.2120 O.2    69  THR69      -0.2714
     80  CB         4.2510   -6.8790    2.9840 C.3    69  THR69       0.1808
     81  OG1        2.8240   -6.7480    2.9010 O.3    69  THR69      -0.2208
     82  CG2        4.6250   -7.9770    3.9870 C.3    69  THR69       0.0379
     83  N          3.7550   -3.6530    2.2660 N.am   70  ARG70      -0.1963
     84  CA         3.4340   -2.7010    1.1850 C.3    70  ARG70       0.1729
     85  C          4.5370   -1.6590    0.9860 C.2    70  ARG70       0.2616
     86  O          5.2230   -1.2790    1.9360 O.2    70  ARG70      -0.2715
     87  CB         2.0750   -1.9850    1.4370 C.3    70  ARG70       0.0348
     88  CG         1.8300   -0.7700    0.5140 C.3    70  ARG70       0.0492
     89  CD         0.3710   -0.2760    0.3900 C.3    70  ARG70       0.2205
     90  NE         0.2420    0.7450   -0.6630 N.pl3  70  ARG70      -0.0865
     91  CZ         0.0710    2.0550   -0.4470 C.cat  70  ARG70       0.5346
     92  NH1       -0.0170    2.5410    0.7850 N.pl3  70  ARG70       0.1354
     93  NH2       -0.0200    2.8920   -1.4740 N.pl3  70  ARG70       0.1354
     94  N          4.7170   -1.2150   -0.2590 N.am   71  TYR71      -0.1974
     95  CA         5.4810    0.0020   -0.5010 C.3    71  TYR71       0.1639
     96  C          4.4720    1.1540   -0.3640 C.2    71  TYR71       0.2290
     97  O          3.5190    1.2580   -1.1570 O.2    71  TYR71      -0.2864
     98  CB         6.1700    0.0330   -1.8810 C.3    71  TYR71       0.0560
     99  CG         6.7730    1.3910   -2.1140 C.ar   71  TYR71      -0.0198
    100  CD1        7.7880    1.8740   -1.2700 C.ar   71  TYR71      -0.0009
    101  CD2        6.2780    2.2400   -3.1100 C.ar   71  TYR71      -0.0009
    102  CE1        8.3180    3.1440   -1.4370 C.ar   71  TYR71       0.0417
    103  CE2        6.8010    3.5180   -3.2850 C.ar   71  TYR71       0.0417
    104  CZ         7.8160    3.9620   -2.4410 C.ar   71  TYR71       0.1957
    105  OH         8.3360    5.2190   -2.6020 O.3    71  TYR71      -0.2866
    106  N         12.6230    6.0960    2.0710 N.3    78  ILE78      -0.1245
    107  CA        13.6840    5.1100    2.1140 C.3    78  ILE78       0.1561
    108  C         15.0480    5.8100    2.1440 C.2    78  ILE78       0.2260
    109  O         15.3270    6.6790    1.3090 O.2    78  ILE78      -0.2867
    110  CB        13.5390    4.0790    0.9680 C.3    78  ILE78       0.0252
    111  CG1       12.1490    3.4140    1.0730 C.3    78  ILE78       0.0019
    112  CG2       14.6500    3.0290    1.0640 C.3    78  ILE78       0.0019
    113  CD1       11.8200    2.4240    0.0280 C.3    78  ILE78       0.0001
    114  N          2.9170  -13.3750   10.7960 N.3   149  GLN149     -0.1245
    115  CA         3.4850  -12.0370   10.6490 C.3   149  GLN149      0.1566
    116  C          2.3270  -11.0320   10.4830 C.2   149  GLN149      0.2260
    117  O          1.2900  -11.3670    9.8740 O.2   149  GLN149     -0.2867
    118  CB         4.5100  -12.0130    9.4910 C.3   149  GLN149      0.0367
    119  CG         5.4840  -13.2270    9.5410 C.3   149  GLN149      0.0905
    120  CD         6.6400  -13.1950    8.5320 C.2   149  GLN149      0.2608
    121  OE1        6.4510  -12.9290    7.3450 O.2   149  GLN149     -0.2717
    122  NE2        7.8440  -13.5060    9.0100 N.am  149  GLN149     -0.0878
@<TRIPOS>BOND
     1   103   101   ar
     2   103   104   ar
     3   101    99   ar
     4   105   104    1
     5    27    26    2
     6   104   102   ar
     7    99    98    1
     8    99   100   ar
     9    98    95    1
    10    26    28   am
    11    26    25    1
    12    93    91    1
    13   102   100   ar
    14    25    24    1
    15    97    96    2
    16    90    91    2
    17    90    89    1
    18    95    96    1
    19    95    94    1
    20    91    92    1
    21    94    85   am
    22    24    21    1
    23   113   111    1
    24    20    21    1
    25    52    51    1
    26    89    88    1
    27    88    87    1
    28    53    51    1
    29    21    22    1
    30   110   112    1
    31   110   111    1
    32   110   107    1
    33    85    84    1
    34    85    86    2
    35    84    87    1
    36    84    83    1
    37    79    78    2
    38    51    50    1
    39   109   108    2
    40    18    19   ar
    41    18    16   ar
    42    19    17   ar
    43    64    62    1
    44    23    22    2
    45    22    29   am
    46   106   107    1
    47   107   108    1
    48    63    62    1
    49    78    83   am
    50    78    77    1
    51    62    61    2
    52    16    14   ar
    53    50    47    1
    54    81    80    1
    55    80    77    1
    56    80    82    1
    57    17    15   ar
    58    61    60    1
    59    29    30    1
    60    77    76    1
    61    14    15   ar
    62    14    13    1
    63    60    59    1
    64    47    46    1
    65    47    48    1
    66    12    11    2
    67    59    58    1
    68    30    33    1
    69    30    31    1
    70    76    67   am
    71    13    10    1
    72    33    34    1
    73    11    10    1
    74    36    35   ar
    75    48    49    2
    76    34    35    1
    77    68    67    2
    78    58    55    1
    79    35    37   ar
    80    32    31    2
    81    31    38   am
    82    67    66    1
    83    10     9    1
    84    55    54    1
    85    55    56    1
    86    75    73    1
    87    74    73    1
    88    38    39    1
    89     7     8    1
    90     7     6    1
    91    73    72    2
    92    66    65    1
    93    66    69    1
    94    56    57    2
    95   121   120    2
    96    69    70    1
    97    39    40    1
    98    39    42    1
    99    70    71    1
   100    72    71    1
   101     4     3    2
   102     6     5    1
   103    40    41    2
   104   120   122   am
   105   120   119    1
   106    42    43    1
   107     5     2    1
   108     3     2    1
   109   118   119    1
   110   118   115    1
   111     2     1    1
   112   117   116    2
   113    44    43    1
   114    43    45    1
   115   116   115    1
   116   115   114    1
