@<TRIPOS>MOLECULE
tmp/2v3sA00.pdb
 129 125 0 0 0
SMALL
GASTEIGER

@<TRIPOS>ATOM
      1  N         -1.9040    5.3440   35.2810 N.3    17  ASN17      -0.1225
      2  CA        -1.9030    6.4670   34.3540 C.3    17  ASN17       0.1785
      3  C         -2.6100    6.1470   33.0520 C.2    17  ASN17       0.2597
      4  O         -2.6120    4.9900   32.6140 O.2    17  ASN17      -0.2718
      5  CB        -0.4760    6.9600   34.0650 C.3    17  ASN17       0.1169
      6  CG         0.1250    7.6690   35.2570 C.2    17  ASN17       0.2627
      7  OD1        0.5670    7.0330   36.2160 O.2    17  ASN17      -0.2716
      8  ND2        0.1380    8.9830   35.2080 N.am   17  ASN17      -0.0877
      9  N         -3.2120    7.1800   32.4620 N.am   18  ASP18      -0.1960
     10  CA        -3.8660    7.0950   31.1550 C.3    18  ASP18       0.1840
     11  C         -3.0100    7.8570   30.1390 C.2    18  ASP18       0.2622
     12  O         -2.8700    9.0860   30.2220 O.2    18  ASP18      -0.2715
     13  CB        -5.2720    7.7130   31.2020 C.3    18  ASP18       0.1450
     14  CG        -6.3280    6.7640   31.7530 C.2    18  ASP18       0.3671
     15  OD1       -6.0900    5.5540   31.8230 O.co2  18  ASP18      -0.2456
     16  OD2       -7.4380    7.2240   32.0720 O.co2  18  ASP18      -0.2456
     17  N         -2.4110    7.1200   29.2020 N.am   19  ILE19      -0.1963
     18  CA        -1.5400    7.7470   28.2070 C.3    19  ILE19       0.1727
     19  C         -2.3470    7.9850   26.9350 C.2    19  ILE19       0.2616
     20  O         -2.8030    7.0370   26.3040 O.2    19  ILE19      -0.2715
     21  CB        -0.2880    6.8910   27.9050 C.3    19  ILE19       0.0290
     22  CG1        0.4950    6.5880   29.1990 C.3    19  ILE19       0.0022
     23  CG2        0.5600    7.5790   26.8130 C.3    19  ILE19       0.0023
     24  CD1        1.5830    5.4930   29.0120 C.3    19  ILE19       0.0001
     25  N         -2.5520    9.2520   26.5890 N.am   20  ARG20      -0.1963
     26  CA        -3.3500    9.6240   25.4070 C.3    20  ARG20       0.1729
     27  C         -2.4510    9.7090   24.1490 C.2    20  ARG20       0.2616
     28  O         -1.3130   10.1790   24.2230 O.2    20  ARG20      -0.2715
     29  CB        -4.0990   10.9440   25.6580 C.3    20  ARG20       0.0348
     30  CG        -5.3970   10.7810   26.4800 C.3    20  ARG20       0.0492
     31  CD        -5.5930   11.8070   27.6170 C.3    20  ARG20       0.2205
     32  NE        -4.9790   11.3700   28.8800 N.pl3  20  ARG20      -0.0865
     33  CZ        -5.4770   11.5770   30.1040 C.cat  20  ARG20       0.5346
     34  NH1       -6.6330   12.2140   30.2920 N.pl3  20  ARG20       0.1354
     35  NH2       -4.8070   11.1340   31.1580 N.pl3  20  ARG20       0.1354
     36  N         -2.9350    9.1900   23.0160 N.am   21  PHE21      -0.1960
     37  CA        -2.1790    9.2960   21.7640 C.3    21  PHE21       0.1771
     38  C         -3.0720    9.0140   20.5590 C.2    21  PHE21       0.2619
     39  O         -4.0890    8.3300   20.6780 O.2    21  PHE21      -0.2715
     40  CB        -0.9320    8.3970   21.7920 C.3    21  PHE21       0.0574
     41  CG        -1.2270    6.9120   21.7630 C.ar   21  PHE21      -0.0200
     42  CD1       -1.2570    6.2120   20.5570 C.ar   21  PHE21      -0.0042
     43  CD2       -1.4850    6.2160   22.9540 C.ar   21  PHE21      -0.0042
     44  CE1       -1.5270    4.8110   20.5420 C.ar   21  PHE21      -0.0003
     45  CE2       -1.7760    4.8340   22.9490 C.ar   21  PHE21      -0.0003
     46  CZ        -1.7890    4.1280   21.7400 C.ar   21  PHE21      -0.0000
     47  N         -2.6980    9.5710   19.4140 N.am   22  GLU22      -0.1963
     48  CA        -3.4290    9.3600   18.1710 C.3    22  GLU22       0.1733
     49  C         -2.7310    8.2860   17.3610 C.2    22  GLU22       0.2616
     50  O         -1.5140    8.1230   17.4570 O.2    22  GLU22      -0.2715
     51  CB        -3.4600   10.6380   17.3360 C.3    22  GLU22       0.0429
     52  CG        -4.1760   11.8100   17.9410 C.3    22  GLU22       0.1163
     53  CD        -4.0260   13.0610   17.0840 C.2    22  GLU22       0.3649
     54  OE1       -3.7660   12.9310   15.8500 O.co2  22  GLU22      -0.2457
     55  OE2       -4.1700   14.1670   17.6480 O.co2  22  GLU22      -0.2457
     56  N         -3.5200    7.5500   16.5880 N.am   23  PHE23      -0.1960
     57  CA        -3.0220    6.5640   15.6270 C.3    23  PHE23       0.1771
     58  C         -3.7150    6.8500   14.3000 C.2    23  PHE23       0.2620
     59  O         -4.9450    6.8780   14.2330 O.2    23  PHE23      -0.2715
     60  CB        -3.3840    5.1410   16.0990 C.3    23  PHE23       0.0574
     61  CG        -2.6930    4.0490   15.3260 C.ar   23  PHE23      -0.0200
     62  CD1       -1.5430    3.4410   15.8380 C.ar   23  PHE23      -0.0042
     63  CD2       -3.1650    3.6530   14.0810 C.ar   23  PHE23      -0.0042
     64  CE1       -0.8670    2.4260   15.1090 C.ar   23  PHE23      -0.0003
     65  CE2       -2.4860    2.6570   13.3280 C.ar   23  PHE23      -0.0003
     66  CZ        -1.3470    2.0450   13.8520 C.ar   23  PHE23      -0.0000
     67  N         -2.9330    7.0490   13.2420 N.am   24  THR24      -0.1951
     68  CA        -3.5040    7.2910   11.9100 C.3    24  THR24       0.1897
     69  C         -3.3520    6.0870   10.9460 C.2    24  THR24       0.2313
     70  O         -2.2680    5.8650   10.4220 O.2    24  THR24      -0.2863
     71  CB        -2.8790    8.5600   11.3200 C.3    24  THR24       0.1794
     72  OG1       -3.1350    9.6380   12.2320 O.3    24  THR24      -0.2208
     73  CG2       -3.5220    8.8950    9.9790 C.3    24  THR24       0.0378
     74  N         -0.8400    5.5780    7.8050 N.3    27  ARG27      -0.1231
     75  CA         0.4370    6.2180    8.1020 C.3    27  ARG27       0.1694
     76  C          1.2290    5.5100    9.1830 C.2    27  ARG27       0.2592
     77  O          2.4450    5.3640    9.0620 O.2    27  ARG27      -0.2718
     78  CB         0.2480    7.6930    8.4930 C.3    27  ARG27       0.0321
     79  CG         1.5330    8.3820    8.8980 C.3    27  ARG27       0.0489
     80  CD         1.2870    9.8890    8.9680 C.3    27  ARG27       0.2205
     81  NE         0.9030   10.3330   10.3040 N.pl3  27  ARG27      -0.0865
     82  CZ         0.0070   11.2910   10.5570 C.cat  27  ARG27       0.5346
     83  NH1       -0.6450   11.9020    9.5690 N.pl3  27  ARG27       0.1354
     84  NH2       -0.2560   11.6210   11.8100 N.pl3  27  ARG27       0.1354
     85  N          0.5450    5.1260   10.2640 N.am   28  ASP28      -0.1974
     86  CA         1.1920    4.4930   11.4200 C.3    28  ASP28       0.1709
     87  C          1.0250    2.9870   11.3760 C.2    28  ASP28       0.2293
     88  O          0.0650    2.5100   10.8070 O.2    28  ASP28      -0.2864
     89  CB         0.5060    4.9790   12.7020 C.3    28  ASP28       0.1436
     90  CG         0.7390    6.4670   12.9810 C.2    28  ASP28       0.3671
     91  OD1        1.8440    6.9880   12.6600 O.co2  28  ASP28      -0.2456
     92  OD2       -0.2060    7.1040   13.5180 O.co2  28  ASP28      -0.2456
     93  N          4.3030    2.2340   16.4150 N.3    33  VAL33      -0.1245
     94  CA         3.8110    2.9990   17.5620 C.3    33  VAL33       0.1561
     95  C          4.2000    2.3140   18.8990 C.2    33  VAL33       0.2260
     96  O          4.5380    2.9950   19.8810 O.2    33  VAL33      -0.2867
     97  CB         2.3020    3.2950   17.4570 C.3    33  VAL33       0.0252
     98  CG1        2.0280    4.2250   16.2660 C.3    33  VAL33       0.0019
     99  CG2        1.7840    3.9590   18.7650 C.3    33  VAL33       0.0019
    100  N          7.6510    3.2760   19.5780 N.3    36  GLU36      -0.1231
    101  CA         7.6050    4.6390   20.1200 C.3    36  GLU36       0.1699
    102  C          7.2890    4.6510   21.6150 C.2    36  GLU36       0.2592
    103  O          7.9030    5.4050   22.3840 O.2    36  GLU36      -0.2718
    104  CB         6.5720    5.5020   19.3980 C.3    36  GLU36       0.0402
    105  CG         6.9540    5.8520   17.9550 C.3    36  GLU36       0.1161
    106  CD         5.9650    6.8080   17.3130 C.2    36  GLU36       0.3649
    107  OE1        5.6220    7.8410   17.9330 O.co2  36  GLU36      -0.2457
    108  OE2        5.5130    6.5350   16.1890 O.co2  36  GLU36      -0.2457
    109  N          6.3320    3.8280   22.0290 N.am   37  LEU37      -0.1980
    110  CA         5.9730    3.7810   23.4540 C.3    37  LEU37       0.1596
    111  C          7.1790    3.3550   24.2970 C.2    37  LEU37       0.2287
    112  O          7.4370    3.9310   25.3580 O.2    37  LEU37      -0.2864
    113  CB         4.7760    2.8460   23.6770 C.3    37  LEU37       0.0297
    114  CG         3.3980    3.4290   23.3270 C.3    37  LEU37       0.0022
    115  CD1        2.4110    2.2900   23.1130 C.3    37  LEU37       0.0001
    116  CD2        2.8450    4.4250   24.3820 C.3    37  LEU37       0.0001
    117  N         10.0290    5.9090   24.3980 N.3    40  ALA40      -0.1245
    118  CA         9.6110    6.9920   25.3040 C.3    40  ALA40       0.1562
    119  C          9.7030    6.6170   26.7730 C.2    40  ALA40       0.2260
    120  O          9.4640    7.4520   27.6440 O.2    40  ALA40      -0.2867
    121  CB         8.1880    7.4860   24.9620 C.3    40  ALA40       0.0290
    122  N          7.6730    4.5420   28.2520 N.3    42  LEU42      -0.1245
    123  CA         6.3000    4.3900   28.7510 C.3    42  LEU42       0.1561
    124  C          5.8760    2.9200   28.8460 C.2    42  LEU42       0.2260
    125  O          4.9790    2.5680   29.6260 O.2    42  LEU42      -0.2867
    126  CB         5.3140    5.1720   27.8870 C.3    42  LEU42       0.0270
    127  CG         5.5330    6.7010   27.9060 C.3    42  LEU42       0.0019
    128  CD1        4.7200    7.3790   26.8510 C.3    42  LEU42       0.0001
    129  CD2        5.2680    7.3230   29.2890 C.3    42  LEU42       0.0001
@<TRIPOS>BOND
     1    74    75    1
     2    75    78    1
     3    75    76    1
     4    78    79    1
     5    79    80    1
     6    80    81    1
     7    77    76    2
     8    76    85   am
     9    83    82    1
    10    73    71    1
    11    85    86    1
    12    81    82    2
    13    70    69    2
    14    82    84    1
    15    88    87    2
    16    69    68    1
    17    71    68    1
    18    71    72    1
    19    87    86    1
    20    86    89    1
    21    68    67    1
    22    91    90   ar
    23    89    90    1
    24    90    92   ar
    25    67    58   am
    26    65    66   ar
    27    65    63   ar
    28    66    64   ar
    29    63    61   ar
    30    59    58    2
    31    58    57    1
    32    64    62   ar
    33    61    62   ar
    34    61    60    1
    35    57    60    1
    36    57    56    1
    37    54    53   ar
    38   108   106   ar
    39    98    97    1
    40    93    94    1
    41    56    49   am
    42    53    55   ar
    43    53    52    1
    44   106   107   ar
    45   106   105    1
    46    51    52    1
    47    51    48    1
    48    49    50    2
    49    49    48    1
    50    97    94    1
    51    97    99    1
    52    94    95    1
    53   105   104    1
    54    48    47    1
    55    95    96    2
    56   104   101    1
    57    47    38   am
    58   100   101    1
    59   101   102    1
    60    44    42   ar
    61    44    46   ar
    62    42    41   ar
    63    38    39    2
    64    38    37    1
    65   102   109   am
    66   102   103    2
    67    46    45   ar
    68    41    40    1
    69    41    43   ar
    70    37    40    1
    71    37    36    1
    72   109   110    1
    73    45    43   ar
    74    36    27   am
    75   115   114    1
    76   114   113    1
    77   114   116    1
    78   110   113    1
    79   110   111    1
    80    27    28    2
    81    27    26    1
    82   111   112    2
    83   117   118    1
    84   121   118    1
    85   118   119    1
    86    26    29    1
    87    26    25    1
    88    29    30    1
    89    20    19    2
    90    30    31    1
    91    25    19   am
    92   119   120    2
    93    23    21    1
    94   128   127    1
    95    19    18    1
    96    31    32    1
    97   126   127    1
    98   126   123    1
    99    21    18    1
   100    21    22    1
   101   127   129    1
   102    18    17    1
   103   122   123    1
   104   123   124    1
   105   124   125    2
   106    32    33    2
   107    24    22    1
   108    17    11   am
   109    33    34    1
   110    33    35    1
   111    11    12    2
   112    11    10    1
   113    10    13    1
   114    10     9    1
   115    13    14    1
   116    14    15   ar
   117    14    16   ar
   118     9     3   am
   119     4     3    2
   120     3     2    1
   121     5     2    1
   122     5     6    1
   123     2     1    1
   124     8     6   am
   125     6     7    2
