@<TRIPOS>MOLECULE
tmp/2v3sB00.pdb
 130 126 0 0 0
SMALL
GASTEIGER

@<TRIPOS>ATOM
      1  N          3.7830  -28.7470   20.6190 N.3    16  LEU16      -0.1231
      2  CA         4.4790  -28.4250   19.3870 C.3    16  LEU16       0.1693
      3  C          4.4680  -29.6230   18.4180 C.2    16  LEU16       0.2592
      4  O          4.8150  -30.7720   18.7940 O.2    16  LEU16      -0.2718
      5  CB         5.9060  -27.9710   19.7000 C.3    16  LEU16       0.0284
      6  CG         6.6800  -27.0900   18.7300 C.3    16  LEU16       0.0019
      7  CD1        6.0550  -25.7060   18.6250 C.3    16  LEU16       0.0001
      8  CD2        8.1480  -27.0120   19.2130 C.3    16  LEU16       0.0001
      9  N          4.0500  -29.3540   17.1860 N.am   17  ASN17      -0.1960
     10  CA         4.0000  -30.3760   16.1390 C.3    17  ASN17       0.1819
     11  C          4.7760  -29.9610   14.9090 C.2    17  ASN17       0.2621
     12  O          4.8620  -28.7710   14.6120 O.2    17  ASN17      -0.2715
     13  CB         2.5680  -30.6610   15.6810 C.3    17  ASN17       0.1195
     14  CG         1.7150  -31.3180   16.7310 C.2    17  ASN17       0.2630
     15  OD1        2.1970  -32.0920   17.5790 O.2    17  ASN17      -0.2716
     16  ND2        0.4200  -31.0470   16.6590 N.am   17  ASN17      -0.0877
     17  N          5.3430  -30.9550   14.2160 N.am   18  ASP18      -0.1957
     18  CA         5.8700  -30.7760   12.8560 C.3    18  ASP18       0.1840
     19  C          4.8800  -31.4510   11.9390 C.2    18  ASP18       0.2622
     20  O          4.5220  -32.6120   12.1500 O.2    18  ASP18      -0.2715
     21  CB         7.2490  -31.4110   12.6810 C.3    18  ASP18       0.1450
     22  CG         8.3210  -30.6760   13.4420 C.2    18  ASP18       0.3671
     23  OD1        8.5440  -29.4730   13.1670 O.co2  18  ASP18      -0.2456
     24  OD2        8.9420  -31.3150   14.3170 O.co2  18  ASP18      -0.2456
     25  N          4.4330  -30.7090   10.9310 N.am   19  ILE19      -0.1963
     26  CA         3.4760  -31.1930    9.9580 C.3    19  ILE19       0.1727
     27  C          4.2120  -31.2330    8.6270 C.2    19  ILE19       0.2616
     28  O          4.5600  -30.1940    8.0650 O.2    19  ILE19      -0.2715
     29  CB         2.2360  -30.2690    9.8550 C.3    19  ILE19       0.0290
     30  CG1        1.5550  -30.0840   11.2290 C.3    19  ILE19       0.0022
     31  CG2        1.2590  -30.7730    8.7680 C.3    19  ILE19       0.0023
     32  CD1        0.5150  -28.9220   11.2240 C.3    19  ILE19       0.0001
     33  N          4.4640  -32.4490    8.1510 N.am   20  ARG20      -0.1963
     34  CA         5.3330  -32.6760    7.0040 C.3    20  ARG20       0.1729
     35  C          4.4810  -33.0260    5.8070 C.2    20  ARG20       0.2616
     36  O          3.5000  -33.7590    5.9200 O.2    20  ARG20      -0.2715
     37  CB         6.3280  -33.7970    7.3080 C.3    20  ARG20       0.0348
     38  CG         7.3910  -33.3840    8.3050 C.3    20  ARG20       0.0492
     39  CD         8.2000  -34.5970    8.7790 C.3    20  ARG20       0.2205
     40  NE         8.8200  -34.3430   10.0770 N.pl3  20  ARG20      -0.0865
     41  CZ         9.8820  -33.5660   10.2670 C.cat  20  ARG20       0.5346
     42  NH1       10.4590  -32.9620    9.2380 N.pl3  20  ARG20       0.1354
     43  NH2       10.3720  -33.3970   11.4890 N.pl3  20  ARG20       0.1354
     44  N          4.8270  -32.4390    4.6700 N.am   21  PHE21      -0.1960
     45  CA         4.0830  -32.6870    3.4380 C.3    21  PHE21       0.1771
     46  C          4.8910  -32.3040    2.2190 C.2    21  PHE21       0.2619
     47  O          5.8120  -31.4730    2.2830 O.2    21  PHE21      -0.2715
     48  CB         2.7330  -31.9490    3.4330 C.3    21  PHE21       0.0574
     49  CG         2.8450  -30.4560    3.6010 C.ar   21  PHE21      -0.0200
     50  CD1        2.7720  -29.6090    2.4890 C.ar   21  PHE21      -0.0042
     51  CD2        2.9770  -29.8910    4.8810 C.ar   21  PHE21      -0.0042
     52  CE1        2.8520  -28.2200    2.6450 C.ar   21  PHE21      -0.0003
     53  CE2        3.0510  -28.5120    5.0480 C.ar   21  PHE21      -0.0003
     54  CZ         2.9930  -27.6740    3.9270 C.ar   21  PHE21      -0.0000
     55  N          4.5550  -32.9170    1.0870 N.am   22  GLU22      -0.1963
     56  CA         5.1990  -32.5220   -0.1520 C.3    22  GLU22       0.1733
     57  C          4.3110  -31.5370   -0.9100 C.2    22  GLU22       0.2616
     58  O          3.0770  -31.6390   -0.8860 O.2    22  GLU22      -0.2715
     59  CB         5.5430  -33.7470   -1.0230 C.3    22  GLU22       0.0429
     60  CG         6.6300  -33.4300   -2.0490 C.3    22  GLU22       0.1163
     61  CD         7.7440  -34.4780   -2.1400 C.2    22  GLU22       0.3649
     62  OE1        8.9360  -34.0990   -2.0330 O.co2  22  GLU22      -0.2457
     63  OE2        7.4390  -35.6700   -2.3350 O.co2  22  GLU22      -0.2457
     64  N          4.9600  -30.5700   -1.5450 N.am   23  PHE23      -0.1974
     65  CA         4.2790  -29.6140   -2.4120 C.3    23  PHE23       0.1639
     66  C          4.9110  -29.7330   -3.8090 C.2    23  PHE23       0.2290
     67  O          6.1280  -29.5660   -3.9700 O.2    23  PHE23      -0.2864
     68  CB         4.4390  -28.1920   -1.8700 C.3    23  PHE23       0.0560
     69  CG         3.6030  -27.1540   -2.5970 C.ar   23  PHE23      -0.0200
     70  CD1        2.4100  -26.6980   -2.0350 C.ar   23  PHE23      -0.0042
     71  CD2        4.0110  -26.6240   -3.8320 C.ar   23  PHE23      -0.0042
     72  CE1        1.6190  -25.7330   -2.6790 C.ar   23  PHE23      -0.0003
     73  CE2        3.2190  -25.6440   -4.5100 C.ar   23  PHE23      -0.0003
     74  CZ         2.0140  -25.2080   -3.9300 C.ar   23  PHE23      -0.0000
     75  N          1.1890  -28.7750   -9.7930 N.3    27  ARG27      -0.1231
     76  CA         0.0310  -29.6010   -9.3850 C.3    27  ARG27       0.1694
     77  C         -0.7250  -28.9490   -8.2320 C.2    27  ARG27       0.2592
     78  O         -1.9590  -28.8760   -8.2370 O.2    27  ARG27      -0.2718
     79  CB         0.4690  -30.9960   -8.9570 C.3    27  ARG27       0.0321
     80  CG        -0.7040  -31.9640   -8.7320 C.3    27  ARG27       0.0489
     81  CD        -0.2810  -33.2490   -8.0150 C.3    27  ARG27       0.2205
     82  NE         0.9480  -33.8140   -8.5570 N.pl3  27  ARG27      -0.0865
     83  CZ         1.8160  -34.5330   -7.8480 C.cat  27  ARG27       0.5346
     84  NH1        1.6010  -34.7770   -6.5530 N.pl3  27  ARG27       0.1354
     85  NH2        2.9020  -35.0000   -8.4410 N.pl3  27  ARG27       0.1354
     86  N          0.0380  -28.4890   -7.2520 N.am   28  ASP28      -0.1974
     87  CA        -0.5090  -27.8980   -6.0520 C.3    28  ASP28       0.1709
     88  C         -0.5090  -26.3720   -6.0960 C.2    28  ASP28       0.2293
     89  O          0.3070  -25.7600   -6.7760 O.2    28  ASP28      -0.2864
     90  CB         0.3070  -28.3600   -4.8570 C.3    28  ASP28       0.1436
     91  CG         0.2160  -29.8500   -4.6420 C.2    28  ASP28       0.3671
     92  OD1       -0.8830  -30.4260   -4.8670 O.co2  28  ASP28      -0.2456
     93  OD2        1.2340  -30.4260   -4.2210 O.co2  28  ASP28      -0.2456
     94  N         -3.5050  -25.8940   -0.8490 N.3    33  VAL33      -0.1245
     95  CA        -2.8410  -26.5940    0.2430 C.3    33  VAL33       0.1561
     96  C         -3.1930  -25.9710    1.6070 C.2    33  VAL33       0.2260
     97  O         -3.3750  -26.6860    2.6090 O.2    33  VAL33      -0.2867
     98  CB        -1.3080  -26.7450   -0.0010 C.3    33  VAL33       0.0252
     99  CG1       -1.0350  -27.6080   -1.2650 C.3    33  VAL33       0.0019
    100  CG2       -0.6300  -27.3590    1.2330 C.3    33  VAL33       0.0019
    101  N         -6.4650  -27.3630    2.4060 N.3    36  GLU36      -0.1231
    102  CA        -6.2150  -28.7090    2.9230 C.3    36  GLU36       0.1699
    103  C         -5.8720  -28.7160    4.4050 C.2    36  GLU36       0.2592
    104  O         -6.4590  -29.5130    5.1560 O.2    36  GLU36      -0.2718
    105  CB        -5.1360  -29.4320    2.1350 C.3    36  GLU36       0.0402
    106  CG        -5.6510  -29.9160    0.7780 C.3    36  GLU36       0.1161
    107  CD        -4.6300  -30.7710    0.0530 C.2    36  GLU36       0.3649
    108  OE1       -4.0690  -31.6980    0.6670 O.co2  36  GLU36      -0.2457
    109  OE2       -4.4150  -30.5100   -1.1420 O.co2  36  GLU36      -0.2457
    110  N         -4.9290  -27.8550    4.8120 N.am   37  LEU37      -0.1980
    111  CA        -4.5270  -27.7660    6.2320 C.3    37  LEU37       0.1596
    112  C         -5.7420  -27.4140    7.1300 C.2    37  LEU37       0.2287
    113  O         -5.9040  -27.9490    8.2400 O.2    37  LEU37      -0.2864
    114  CB        -3.4200  -26.7020    6.3970 C.3    37  LEU37       0.0297
    115  CG        -2.0320  -27.1360    5.8860 C.3    37  LEU37       0.0022
    116  CD1       -1.1530  -25.9220    5.6460 C.3    37  LEU37       0.0001
    117  CD2       -1.3370  -28.0600    6.9080 C.3    37  LEU37       0.0001
    118  N         -8.1600  -30.3240    7.4030 N.3    40  ALA40      -0.1245
    119  CA        -7.5340  -31.3320    8.2920 C.3    40  ALA40       0.1562
    120  C         -7.5240  -30.9140    9.7710 C.2    40  ALA40       0.2260
    121  O         -7.0730  -31.6830   10.6350 O.2    40  ALA40      -0.2867
    122  CB        -6.1220  -31.6490    7.8340 C.3    40  ALA40       0.0290
    123  N         -5.5670  -28.6580   11.1040 N.3    42  LEU42      -0.1245
    124  CA        -4.1880  -28.3840   11.5070 C.3    42  LEU42       0.1561
    125  C         -3.8900  -26.8730   11.5610 C.2    42  LEU42       0.2260
    126  O         -2.9180  -26.4400   12.1970 O.2    42  LEU42      -0.2867
    127  CB        -3.2050  -29.0950   10.5660 C.3    42  LEU42       0.0270
    128  CG        -3.3280  -30.6280   10.4510 C.3    42  LEU42       0.0019
    129  CD1       -2.4850  -31.1820    9.3010 C.3    42  LEU42       0.0001
    130  CD2       -2.9330  -31.2860   11.7810 C.3    42  LEU42       0.0001
@<TRIPOS>BOND
     1    75    76    1
     2    76    79    1
     3    76    77    1
     4    79    80    1
     5    80    81    1
     6    82    81    1
     7    82    83    2
     8    85    83    1
     9    78    77    2
    10    77    86   am
    11    83    84    1
    12    86    87    1
    13    89    88    2
    14    88    87    1
    15    87    90    1
    16    92    91   ar
    17    90    91    1
    18    91    93   ar
    19    73    74   ar
    20    73    71   ar
    21    67    66    2
    22    74    72   ar
    23    71    69   ar
    24    66    65    1
    25    72    70   ar
    26    69    70   ar
    27    69    68    1
    28    65    68    1
    29    65    64    1
    30    63    61   ar
    31    61    60    1
    32    61    62   ar
    33    60    59    1
    34    64    57   am
    35    99    98    1
    36   109   107   ar
    37    59    56    1
    38    57    58    2
    39    57    56    1
    40    94    95    1
    41    56    55    1
    42    98    95    1
    43    98   100    1
    44   107   108   ar
    45   107   106    1
    46    95    96    1
    47   106   105    1
    48    55    46   am
    49    96    97    2
    50   105   102    1
    51    46    47    2
    52    46    45    1
    53   101   102    1
    54    50    52   ar
    55    50    49   ar
    56    52    54   ar
    57   102   103    1
    58    48    45    1
    59    48    49    1
    60    45    44    1
    61    49    51   ar
    62    54    53   ar
    63   103   110   am
    64   103   104    2
    65    44    35   am
    66   110   111    1
    67    51    53   ar
    68   116   115    1
    69    35    36    2
    70    35    34    1
    71   115   114    1
    72   115   117    1
    73   111   114    1
    74   111   112    1
    75    34    37    1
    76    34    33    1
    77   112   113    2
    78    37    38    1
    79   118   119    1
    80   122   119    1
    81    28    27    2
    82    33    27   am
    83   119   120    1
    84    38    39    1
    85    27    26    1
    86    31    29    1
    87    39    40    1
    88    42    41    1
    89   129   128    1
    90   120   121    2
    91    29    26    1
    92    29    30    1
    93    26    25    1
    94    40    41    2
    95    41    43    1
    96   128   127    1
    97   128   130    1
    98   127   124    1
    99    25    19   am
   100   123   124    1
   101    32    30    1
   102   124   125    1
   103   125   126    2
   104    19    20    2
   105    19    18    1
   106    21    18    1
   107    21    22    1
   108    18    17    1
   109    23    22   ar
   110    22    24   ar
   111    17    11   am
   112    12    11    2
   113    11    10    1
   114    13    10    1
   115    13    14    1
   116    10     9    1
   117    16    14   am
   118    14    15    2
   119     9     3   am
   120     3     4    2
   121     3     2    1
   122     7     6    1
   123     6     8    1
   124     6     5    1
   125     2     5    1
   126     2     1    1
