@<TRIPOS>MOLECULE
tmp/2v3uA00.pdb
 87 84 0 0 0
SMALL
GASTEIGER

@<TRIPOS>ATOM
      1  N         28.9380   26.8450   24.9860 N.3    58  TYR58      -0.1241
      2  CA        30.3670   27.2150   24.8230 C.3    58  TYR58       0.1605
      3  C         31.2050   25.9710   24.9880 C.2    58  TYR58       0.2264
      4  O         32.0850   25.6880   24.1720 O.2    58  TYR58      -0.2867
      5  CB        30.7640   28.2600   25.8530 C.3    58  TYR58       0.0534
      6  CG        30.2420   29.6020   25.4160 C.ar   58  TYR58      -0.0201
      7  CD1       31.0020   30.4340   24.5880 C.ar   58  TYR58      -0.0009
      8  CD2       28.9590   30.0270   25.7940 C.ar   58  TYR58      -0.0009
      9  CE1       30.4850   31.7220   24.1400 C.ar   58  TYR58       0.0417
     10  CE2       28.4470   31.3070   25.3900 C.ar   58  TYR58       0.0417
     11  CZ        29.2090   32.1370   24.5620 C.ar   58  TYR58       0.1957
     12  OH        28.7270   33.3820   24.1540 O.3    58  TYR58      -0.2866
     13  N         31.6420   34.9940   22.0640 N.3    85  ALA85      -0.1245
     14  CA        32.1860   35.5960   23.2610 C.3    85  ALA85       0.1562
     15  C         32.9540   34.4480   24.0230 C.2    85  ALA85       0.2260
     16  O         32.6420   34.0920   25.1690 O.2    85  ALA85      -0.2867
     17  CB        30.9720   36.1870   24.1050 C.3    85  ALA85       0.0290
     18  N         35.6810   32.7270   26.0690 N.3    87  THR87      -0.1218
     19  CA        36.6880   32.9930   27.1020 C.3    87  THR87       0.1862
     20  C         37.8570   32.0230   27.0190 C.2    87  THR87       0.2287
     21  O         37.6800   30.8000   26.9880 O.2    87  THR87      -0.2866
     22  CB        36.1010   32.9620   28.5040 C.3    87  THR87       0.1770
     23  OG1       35.0890   33.9650   28.5730 O.3    87  THR87      -0.2211
     24  CG2       37.2250   33.3070   29.5500 C.3    87  THR87       0.0375
     25  N         40.4620   24.8910   28.6830 N.3    92  ARG92      -0.1245
     26  CA        40.2300   24.8570   27.2670 C.3    92  ARG92       0.1563
     27  C         41.5250   24.8400   26.4660 C.2    92  ARG92       0.2260
     28  O         41.5780   24.1460   25.4390 O.2    92  ARG92      -0.2867
     29  CB        39.3690   26.0560   26.8550 C.3    92  ARG92       0.0307
     30  CG        37.9420   25.9070   27.3690 C.3    92  ARG92       0.0489
     31  CD        37.2060   27.1920   27.1220 C.3    92  ARG92       0.2205
     32  NE        35.7990   27.0440   27.4830 N.pl3  92  ARG92      -0.0865
     33  CZ        34.9180   28.0460   27.5080 C.cat  92  ARG92       0.5346
     34  NH1       35.3060   29.2760   27.2290 N.pl3  92  ARG92       0.1354
     35  NH2       33.6430   27.7990   27.8150 N.pl3  92  ARG92       0.1354
     36  N         38.0470   40.2100   29.3110 N.3   105  TYR105     -0.1241
     37  CA        36.7950   39.6070   29.8120 C.3   105  TYR105      0.1605
     38  C         36.6670   39.8000   31.3240 C.2   105  TYR105      0.2264
     39  O         37.6550   39.7910   32.0200 O.2   105  TYR105     -0.2867
     40  CB        36.8670   38.1620   29.5000 C.3   105  TYR105      0.0534
     41  CG        35.8940   37.2640   30.1920 C.ar  105  TYR105     -0.0201
     42  CD1       34.6160   37.0140   29.6560 C.ar  105  TYR105     -0.0009
     43  CD2       36.2620   36.6350   31.3580 C.ar  105  TYR105     -0.0009
     44  CE1       33.7040   36.1560   30.3320 C.ar  105  TYR105      0.0417
     45  CE2       35.3760   35.7740   32.0290 C.ar  105  TYR105      0.0417
     46  CZ        34.1160   35.5280   31.5070 C.ar  105  TYR105      0.1957
     47  OH        33.3020   34.6480   32.1970 O.3   105  TYR105     -0.2866
     48  N         29.6180   26.4050   30.6560 N.3   137  SER137     -0.1202
     49  CA        30.2960   27.6580   30.2940 C.3   137  SER137      0.2020
     50  C         31.4850   27.8750   31.2000 C.2   137  SER137      0.2619
     51  O         31.6240   27.2300   32.2700 O.2   137  SER137     -0.2717
     52  CB        29.3290   28.8350   30.4180 C.3   137  SER137      0.2103
     53  OG        29.0740   29.1500   31.8000 O.3   137  SER137     -0.2182
     54  N         32.3490   28.8150   30.8040 N.am  138  ALA138     -0.1965
     55  CA        33.5400   29.1330   31.5780 C.3   138  ALA138      0.1728
     56  C         33.1620   29.6790   32.9810 C.2   138  ALA138      0.2616
     57  O         33.8620   29.4060   33.9350 O.2   138  ALA138     -0.2715
     58  CB        34.4220   30.1320   30.8160 C.3   138  ALA138      0.0334
     59  N         32.0370   30.3780   33.0960 N.am  139  VAL139     -0.1977
     60  CA        31.6430   30.9500   34.3920 C.3   139  VAL139      0.1596
     61  C         31.3480   29.8070   35.3540 C.2   139  VAL139      0.2287
     62  O         31.7500   29.8530   36.5470 O.2   139  VAL139     -0.2864
     63  CB        30.3940   31.8640   34.3010 C.3   139  VAL139      0.0276
     64  CG1       30.0560   32.4600   35.6960 C.3   139  VAL139      0.0022
     65  CG2       30.6650   32.9930   33.3330 C.3   139  VAL139      0.0022
     66  N         27.1200   36.5280   34.4480 N.3   188  TRP188     -0.1227
     67  CA        27.5340   36.2770   33.0520 C.3   188  TRP188      0.1737
     68  C         28.5830   37.2890   32.6290 C.2   188  TRP188      0.2595
     69  O         28.8890   38.1920   33.4080 O.2   188  TRP188     -0.2718
     70  CB        26.2810   36.3880   32.1660 C.3   188  TRP188      0.0564
     71  CG        26.4650   35.8050   30.7540 C.ar  188  TRP188      0.0003
     72  CD1       26.1880   36.4220   29.5940 C.ar  188  TRP188      0.0946
     73  CD2       26.9530   34.4850   30.4180 C.ar  188  TRP188      0.0152
     74  NE1       26.4750   35.5800   28.5130 N.ar  188  TRP188     -0.2442
     75  CE2       26.9440   34.3850   28.9910 C.ar  188  TRP188      0.0810
     76  CE3       27.4090   33.3870   31.1740 C.ar  188  TRP188      0.0012
     77  CZ2       27.3920   33.2380   28.3080 C.ar  188  TRP188      0.0191
     78  CZ3       27.8530   32.2220   30.4940 C.ar  188  TRP188      0.0001
     79  CH2       27.8410   32.1700   29.0620 C.ar  188  TRP188      0.0015
     80  N         29.1780   37.1210   31.4400 N.am  189  ASP189     -0.1974
     81  CA        30.1120   38.1310   30.8390 C.3   189  ASP189      0.1709
     82  C         29.6570   39.5670   31.0420 C.2   189  ASP189      0.2293
     83  O         28.5970   39.9260   30.5720 O.2   189  ASP189     -0.2864
     84  CB        30.1820   37.9500   29.2890 C.3   189  ASP189      0.1436
     85  CG        30.7470   36.5830   28.8550 C.2   189  ASP189      0.3671
     86  OD1       30.3930   35.5660   29.4700 O.co2 189  ASP189     -0.2456
     87  OD2       31.5040   36.5750   27.8370 O.co2 189  ASP189     -0.2456
@<TRIPOS>BOND
     1    13    14    1
     2    14    15    1
     3    14    17    1
     4    15    16    2
     5     9    11   ar
     6     9     7   ar
     7    12    11    1
     8     4     3    2
     9    11    10   ar
    10     7     6   ar
    11     2     1    1
    12     2     3    1
    13     2     5    1
    14    10     8   ar
    15     6     8   ar
    16     6     5    1
    17    28    27    2
    18    18    19    1
    19    27    26    1
    20    29    26    1
    21    29    30    1
    22    21    20    2
    23    20    19    1
    24    19    22    1
    25    31    30    1
    26    31    32    1
    27    34    33    1
    28    26    25    1
    29    32    33    2
    30    33    35    1
    31    87    85   ar
    32    77    75   ar
    33    77    79   ar
    34    22    23    1
    35    22    24    1
    36    74    75   ar
    37    74    72   ar
    38    85    84    1
    39    85    86   ar
    40    75    73   ar
    41    79    78   ar
    42    84    81    1
    43    36    37    1
    44    40    37    1
    45    40    41    1
    46    72    71   ar
    47    42    41   ar
    48    42    44   ar
    49    37    38    1
    50    41    43   ar
    51    49    52    1
    52    49    48    1
    53    49    50    1
    54    44    46   ar
    55    52    53    1
    56    73    71   ar
    57    73    76   ar
    58    78    76   ar
    59    83    82    2
    60    71    70    1
    61    54    50   am
    62    54    55    1
    63    58    55    1
    64    81    82    1
    65    81    80    1
    66    50    51    2
    67    38    39    2
    68    43    45   ar
    69    80    68   am
    70    46    45   ar
    71    46    47    1
    72    55    56    1
    73    70    67    1
    74    68    67    1
    75    68    69    2
    76    56    59   am
    77    56    57    2
    78    67    66    1
    79    59    60    1
    80    65    63    1
    81    63    60    1
    82    63    64    1
    83    60    61    1
    84    61    62    2
