@<TRIPOS>MOLECULE
tmp/2v40A00.pdb
 135 128 0 0 0
SMALL
GASTEIGER

@<TRIPOS>ATOM
      1  N         51.7530   13.0220   16.8780 N.3    15  ASP15      -0.1225
      2  CA        52.0340   14.1240   17.8100 C.3    15  ASP15       0.1805
      3  C         53.4110   13.9990   18.4940 C.2    15  ASP15       0.2598
      4  O         53.6000   14.4440   19.6280 O.2    15  ASP15      -0.2718
      5  CB        50.9030   14.2160   18.8550 C.3    15  ASP15       0.1424
      6  CG        49.5320   14.1590   18.2170 C.2    15  ASP15       0.3668
      7  OD1       49.2480   15.0030   17.3470 O.co2  15  ASP15      -0.2456
      8  OD2       48.7480   13.2600   18.5580 O.co2  15  ASP15      -0.2456
      9  N         54.3800   13.4040   17.7960 N.am   16  GLU16      -0.1965
     10  CA        55.7010   13.2030   18.3770 C.3    16  GLU16       0.1733
     11  C         56.5540   14.4450   18.2770 C.2    16  GLU16       0.2617
     12  O         57.5320   14.5690   19.0040 O.2    16  GLU16      -0.2715
     13  CB        56.4570   12.0550   17.6760 C.3    16  GLU16       0.0429
     14  CG        55.7570   10.6910   17.7560 C.3    16  GLU16       0.1163
     15  CD        54.8780   10.3860   16.5430 C.2    16  GLU16       0.3649
     16  OE1       54.5550   11.3080   15.7680 O.co2  16  GLU16      -0.2457
     17  OE2       54.4870    9.2170   16.3830 O.co2  16  GLU16      -0.2457
     18  N         56.2140   15.3510   17.3640 N.am   17  GLY17      -0.1940
     19  CA        57.0950   16.4580   17.0610 C.3    17  GLY17       0.2014
     20  C         57.8170   16.3400   15.7260 C.2    17  GLY17       0.2639
     21  O         58.9160   16.8870   15.5840 O.2    17  GLY17      -0.2714
     22  N         57.2100   15.6540   14.7470 N.am   18  LYS18      -0.1963
     23  CA        57.8010   15.5370   13.3990 C.3    18  LYS18       0.1728
     24  C         58.0200   16.8980   12.7630 C.2    18  LYS18       0.2617
     25  O         59.0520   17.1160   12.1250 O.2    18  LYS18      -0.2715
     26  CB        56.9320   14.7030   12.4450 C.3    18  LYS18       0.0311
     27  CG        56.6110   13.2750   12.9100 C.3    18  LYS18       0.0038
     28  CD        55.6340   12.5830   11.9370 C.3    18  LYS18       0.0206
     29  CE        54.1870   13.0440   12.1400 C.3    18  LYS18       0.1093
     30  NZ        53.7040   12.8030   13.5610 N.3    18  LYS18      -0.1314
     31  N         57.0540   17.8140   12.9420 N.am   19  GLY19      -0.1940
     32  CA        57.1440   19.1730   12.3710 C.3    19  GLY19       0.2014
     33  C         58.3960   19.9240   12.7950 C.2    19  GLY19       0.2638
     34  O         58.9930   20.6690   12.0060 O.2    19  GLY19      -0.2714
     35  N         58.7860   19.7420   14.0580 N.am   20  LYS20      -0.1977
     36  CA        60.0350   20.3030   14.5900 C.3    20  LYS20       0.1596
     37  C         61.2760   19.8330   13.7920 C.2    20  LYS20       0.2287
     38  O         62.1660   20.6250   13.4460 O.2    20  LYS20      -0.2864
     39  CB        60.1540   19.9300   16.0770 C.3    20  LYS20       0.0298
     40  CG        61.3540   20.5000   16.8390 C.3    20  LYS20       0.0038
     41  CD        61.1650   20.2600   18.3610 C.3    20  LYS20       0.0206
     42  CE        62.3960   20.6610   19.1950 C.3    20  LYS20       0.1093
     43  NZ        62.6730   22.1180   19.1040 N.3    20  LYS20      -0.1314
     44  N         49.2960   21.6550   11.0020 N.3    43  HIS43      -0.1226
     45  CA        50.4950   22.1120   11.6730 C.3    43  HIS43       0.1752
     46  C         50.7230   23.5680   11.3850 C.2    43  HIS43       0.2596
     47  O         50.3170   24.0760   10.3420 O.2    43  HIS43      -0.2718
     48  CB        51.6880   21.2520   11.2810 C.3    43  HIS43       0.0759
     49  CG        51.5620   19.8490   11.7660 C.ar   43  HIS43       0.0818
     50  ND1       50.8940   18.8770   11.0510 N.ar   43  HIS43      -0.2268
     51  CD2       51.9380   19.2730   12.9300 C.ar   43  HIS43       0.1154
     52  CE1       50.8960   17.7520   11.7420 C.ar   43  HIS43       0.1986
     53  NE2       51.5220   17.9660   12.8850 N.ar   43  HIS43      -0.2212
     54  N         51.3460   24.2420   12.3430 N.am   44  THR44      -0.1953
     55  CA        51.5960   25.6800   12.2070 C.3    44  THR44       0.1897
     56  C         53.0870   25.9650   12.1260 C.2    44  THR44       0.2313
     57  O         53.8640   25.4610   12.9250 O.2    44  THR44      -0.2863
     58  CB        50.9220   26.4970   13.3570 C.3    44  THR44       0.1794
     59  OG1       49.5410   26.1340   13.4640 O.3    44  THR44      -0.2208
     60  CG2       51.0280   28.0180   13.1280 C.3    44  THR44       0.0378
     61  N         52.4960   19.1020   31.4670 N.3   287  ARG287     -0.1231
     62  CA        53.8090   19.6040   30.9960 C.3   287  ARG287      0.1694
     63  C         54.0150   19.5480   29.4730 C.2   287  ARG287      0.2592
     64  O         54.6580   20.4280   28.8850 O.2   287  ARG287     -0.2718
     65  CB        54.9420   18.9020   31.7520 C.3   287  ARG287      0.0321
     66  CG        55.0060   19.3330   33.2510 C.3   287  ARG287      0.0489
     67  CD        56.1840   18.7030   33.9980 C.3   287  ARG287      0.2205
     68  NE        57.4840   18.9310   33.3320 N.pl3 287  ARG287     -0.0865
     69  CZ        58.1830   20.0640   33.4210 C.cat 287  ARG287      0.5346
     70  NH1       59.3670   20.1940   32.8050 N.pl3 287  ARG287      0.1354
     71  NH2       57.7100   21.0690   34.1590 N.pl3 287  ARG287      0.1354
     72  N         53.4810   18.5110   28.8280 N.am  288  GLY288     -0.1957
     73  CA        53.5970   18.3740   27.3630 C.3   288  GLY288      0.1869
     74  C         52.4800   19.0360   26.5740 C.2   288  GLY288      0.2309
     75  O         52.4420   18.9680   25.3360 O.2   288  GLY288     -0.2863
     76  N         44.9260   14.2720   25.3940 N.3   299  ARG299     -0.1245
     77  CA        45.4410   13.0020   24.8590 C.3   299  ARG299      0.1563
     78  C         45.7370   12.0590   26.0030 C.2   299  ARG299      0.2260
     79  O         46.0460   12.5010   27.1100 O.2   299  ARG299     -0.2867
     80  CB        46.7020   13.2250   24.0010 C.3   299  ARG299      0.0307
     81  CG        46.4120   14.1290   22.8070 C.3   299  ARG299      0.0489
     82  CD        47.4900   14.1260   21.7420 C.3   299  ARG299      0.2205
     83  NE        48.4120   15.2330   21.9020 N.pl3 299  ARG299     -0.0865
     84  CZ        48.4390   16.3540   21.1790 C.cat 299  ARG299      0.5346
     85  NH1       47.5970   16.5890   20.1770 N.pl3 299  ARG299      0.1354
     86  NH2       49.3520   17.2490   21.4670 N.pl3 299  ARG299      0.1354
     87  N         62.1380   13.6570   21.1800 N.3   324  THR324     -0.1203
     88  CA        61.5540   14.9850   21.3990 C.3   324  THR324      0.1994
     89  C         60.9490   15.0990   22.8110 C.2   324  THR324      0.2617
     90  O         60.6790   14.0930   23.4470 O.2   324  THR324     -0.2717
     91  CB        60.4290   15.2930   20.4140 C.3   324  THR324      0.1784
     92  OG1       59.4090   14.2910   20.5580 O.3   324  THR324     -0.2211
     93  CG2       60.9310   15.3120   18.9620 C.3   324  THR324      0.0376
     94  N         60.7300   16.3370   23.2500 N.am  325  LYS325     -0.1979
     95  CA        60.0750   16.6450   24.5480 C.3   325  LYS325      0.1596
     96  C         60.8000   16.0240   25.7480 C.2   325  LYS325      0.2287
     97  O         60.1610   15.6800   26.7490 O.2   325  LYS325     -0.2864
     98  CB        58.5950   16.2270   24.5180 C.3   325  LYS325      0.0298
     99  CG        57.7860   16.8930   23.4000 C.3   325  LYS325      0.0038
    100  CD        56.3190   17.1330   23.8480 C.3   325  LYS325      0.0206
    101  CE        55.4430   17.4760   22.6570 C.3   325  LYS325      0.1093
    102  NZ        54.0810   17.9610   23.0210 N.3   325  LYS325     -0.1314
    103  N         62.5300   17.6220   27.7720 N.3   327  ASP327     -0.1225
    104  CA        62.3250   18.6320   28.8330 C.3   327  ASP327      0.1805
    105  C         61.0400   18.3950   29.6790 C.2   327  ASP327      0.2597
    106  O         60.9680   18.8460   30.8220 O.2   327  ASP327     -0.2718
    107  CB        62.2990   20.0440   28.2490 C.3   327  ASP327      0.1424
    108  CG        61.2400   20.2170   27.1570 C.2   327  ASP327      0.3668
    109  OD1       61.2740   19.4910   26.1410 O.co2 327  ASP327     -0.2456
    110  OD2       60.3810   21.1130   27.2860 O.co2 327  ASP327     -0.2456
    111  N         60.0350   17.7280   29.1190 N.am  328  ILE328     -0.1980
    112  CA        58.8390   17.3620   29.8990 C.3   328  ILE328      0.1595
    113  C         59.2230   16.5580   31.1380 C.2   328  ILE328      0.2287
    114  O         58.6070   16.7110   32.2250 O.2   328  ILE328     -0.2864
    115  CB        57.7570   16.6150   29.0380 C.3   328  ILE328      0.0276
    116  CG1       56.9060   17.6050   28.2360 C.3   328  ILE328      0.0022
    117  CG2       56.7870   15.7770   29.9340 C.3   328  ILE328      0.0022
    118  CD1       57.6440   18.6850   27.4280 C.3   328  ILE328      0.0001
    119  N         65.0510   17.1010   21.4410 N.3   407  GLY407     -0.1225
    120  CA        64.1920   18.2910   21.5920 C.3   407  GLY407      0.1811
    121  C         64.1500   18.6650   23.0710 C.2   407  GLY407      0.2280
    122  O         63.9090   17.8050   23.9170 O.2   407  GLY407     -0.2866
    123  N         62.6620   21.8460   23.9230 N.3   409  GLY409     -0.1210
    124  CA        61.6540   22.8940   23.9960 C.3   409  GLY409      0.1956
    125  C         60.9510   23.0940   22.6730 C.2   409  GLY409      0.2611
    126  O         61.2850   22.4620   21.6610 O.2   409  GLY409     -0.2717
    127  N         59.9650   23.9760   22.6710 N.am  410  LYS410     -0.1979
    128  CA        59.1580   24.2010   21.4800 C.3   410  LYS410      0.1596
    129  C         59.9110   24.9410   20.3750 C.2   410  LYS410      0.2287
    130  O         59.7160   24.6380   19.1890 O.2   410  LYS410     -0.2864
    131  CB        57.8700   24.9590   21.8410 C.3   410  LYS410      0.0298
    132  CG        56.9350   24.1810   22.7640 C.3   410  LYS410      0.0038
    133  CD        55.7470   25.0430   23.2480 C.3   410  LYS410      0.0206
    134  CE        54.8580   25.4770   22.1110 C.3   410  LYS410      0.1093
    135  NZ        53.6560   26.2330   22.6330 N.3   410  LYS410     -0.1314
@<TRIPOS>BOND
     1    47    46    2
     2    44    45    1
     3    50    52   ar
     4    50    49   ar
     5    48    45    1
     6    48    49    1
     7    46    45    1
     8    46    54   am
     9    52    53   ar
    10    49    51   ar
    11    28    29    1
    12    28    27    1
    13    34    33    2
    14    25    24    2
    15    56    55    1
    16    56    57    2
    17    29    30    1
    18    55    54    1
    19    55    58    1
    20    32    33    1
    21    32    31    1
    22    26    27    1
    23    26    23    1
    24    24    31   am
    25    24    23    1
    26    33    35   am
    27    53    51   ar
    28    60    58    1
    29    58    59    1
    30    23    22    1
    31    38    37    2
    32    37    36    1
    33    35    36    1
    34    36    39    1
    35    22    20   am
    36    21    20    2
    37    20    19    1
    38    16    15   ar
    39    39    40    1
    40    17    15   ar
    41    15    14    1
    42    40    41    1
    43     1     2    1
    44    19    18    1
    45     7     6   ar
    46    18    11   am
    47    13    14    1
    48    13    10    1
    49     9    10    1
    50     9     3   am
    51     2     3    1
    52     2     5    1
    53     6     8   ar
    54     6     5    1
    55    11    10    1
    56    11    12    2
    57    41    42    1
    58     3     4    2
    59    93    91    1
    60    43    42    1
    61   130   129    2
    62    85    84    1
    63   129   128    1
    64    91    92    1
    65    91    88    1
    66    84    86    1
    67    84    83    2
    68    87    88    1
    69    88    89    1
    70   119   120    1
    71   128   131    1
    72   128   127    1
    73   120   121    1
    74   126   125    2
    75    82    83    1
    76    82    81    1
    77   131   132    1
    78   134   135    1
    79   134   133    1
    80   101   102    1
    81   101   100    1
    82   127   125   am
    83   125   124    1
    84   132   133    1
    85    81    80    1
    86    89    94   am
    87    89    90    2
    88   121   122    2
    89    94    95    1
    90    99   100    1
    91    99    98    1
    92   123   124    1
    93    80    77    1
    94    98    95    1
    95    95    96    1
    96    77    76    1
    97    77    78    1
    98    75    74    2
    99    96    97    2
   100    78    79    2
   101   109   108   ar
   102    74    73    1
   103   108   110   ar
   104   108   107    1
   105    73    72    1
   106   118   116    1
   107   103   104    1
   108   116   115    1
   109   107   104    1
   110    72    63   am
   111   104   105    1
   112    64    63    2
   113   115   112    1
   114   115   117    1
   115   111   105   am
   116   111   112    1
   117    63    62    1
   118   105   106    2
   119   112   113    1
   120    62    61    1
   121    62    65    1
   122   113   114    2
   123    65    66    1
   124    70    69    1
   125    66    67    1
   126    68    69    2
   127    68    67    1
   128    69    71    1
