@<TRIPOS>MOLECULE
tmp/2v43A00.pdb
 118 115 0 0 0
SMALL
GASTEIGER

@<TRIPOS>ATOM
      1  N         34.1610   33.2200   42.1720 N.3    22  PHE22      -0.1241
      2  CA        33.4600   33.8720   41.1020 C.3    22  PHE22       0.1605
      3  C         32.0500   34.2690   41.4770 C.2    22  PHE22       0.2264
      4  O         31.5210   33.8930   42.5290 O.2    22  PHE22      -0.2867
      5  CB        33.4980   33.0170   39.8250 C.3    22  PHE22       0.0534
      6  CG        32.6630   31.7700   39.8890 C.ar   22  PHE22      -0.0203
      7  CD1       31.3480   31.7710   39.4210 C.ar   22  PHE22      -0.0042
      8  CD2       33.1910   30.5920   40.3930 C.ar   22  PHE22      -0.0042
      9  CE1       30.5640   30.6110   39.4650 C.ar   22  PHE22      -0.0003
     10  CE2       32.4180   29.4310   40.4530 C.ar   22  PHE22      -0.0003
     11  CZ        31.1120   29.4460   39.9780 C.ar   22  PHE22      -0.0000
     12  N         27.9810   34.7100   39.8150 N.3    24  SER24      -0.1202
     13  CA        27.0880   34.3050   38.7730 C.3    24  SER24       0.2020
     14  C         25.9560   35.3080   38.8370 C.2    24  SER24       0.2619
     15  O         25.2250   35.3820   39.8270 O.2    24  SER24      -0.2717
     16  CB        26.6320   32.8730   39.0240 C.3    24  SER24       0.2103
     17  OG        25.6190   32.5160   38.1130 O.3    24  SER24      -0.2182
     18  N         25.8660   36.1100   37.7810 N.am   25  ILE25      -0.1965
     19  CA        24.9020   37.1800   37.6530 C.3    25  ILE25       0.1727
     20  C         23.8000   36.7710   36.6750 C.2    25  ILE25       0.2616
     21  O         24.0710   36.3020   35.5590 O.2    25  ILE25      -0.2715
     22  CB        25.5700   38.4960   37.1370 C.3    25  ILE25       0.0290
     23  CG1       26.8790   38.7910   37.8740 C.3    25  ILE25       0.0022
     24  CG2       24.5910   39.6760   37.2070 C.3    25  ILE25       0.0023
     25  CD1       27.6320   39.9910   37.3450 C.3    25  ILE25       0.0001
     26  N         22.5610   36.9450   37.1090 N.am   26  ASN26      -0.1972
     27  CA        21.3940   36.8340   36.2360 C.3    26  ASN26       0.1688
     28  C         20.3090   37.7690   36.7650 C.2    26  ASN26       0.2292
     29  O         20.5960   38.6460   37.5870 O.2    26  ASN26      -0.2864
     30  CB        20.9060   35.3790   36.0840 C.3    26  ASN26       0.1181
     31  CG        20.6660   34.6810   37.4220 C.2    26  ASN26       0.2629
     32  OD1       20.2120   35.2910   38.4020 O.2    26  ASN26      -0.2716
     33  ND2       20.9880   33.3980   37.4690 N.am   26  ASN26      -0.0877
     34  N         26.2340   23.6400   37.3400 N.3    84  ASP84      -0.1225
     35  CA        26.2350   25.0560   37.7300 C.3    84  ASP84       0.1805
     36  C         27.4880   25.4830   38.4790 C.2    84  ASP84       0.2598
     37  O         27.4300   26.2370   39.4440 O.2    84  ASP84      -0.2718
     38  CB        24.9620   25.4210   38.5110 C.3    84  ASP84       0.1424
     39  CG        23.7250   25.4280   37.6330 C.2    84  ASP84       0.3668
     40  OD1       22.6860   24.8920   38.0680 O.co2  84  ASP84      -0.2456
     41  OD2       23.7950   25.9610   36.5030 O.co2  84  ASP84      -0.2456
     42  N         28.6170   24.9700   38.0210 N.am   85  SER85      -0.1938
     43  CA        29.9150   25.3940   38.4630 C.3    85  SER85       0.2055
     44  C         30.4310   26.3490   37.3700 C.2    85  SER85       0.2643
     45  O         30.0000   27.4950   37.3100 O.2    85  SER85      -0.2714
     46  CB        30.8220   24.1720   38.6820 C.3    85  SER85       0.2130
     47  OG        31.0580   23.4430   37.4800 O.3    85  SER85      -0.2179
     48  N         31.3280   25.8760   36.5040 N.am   86  LEU86      -0.1963
     49  CA        31.7420   26.6070   35.3010 C.3    86  LEU86       0.1713
     50  C         30.5940   26.6400   34.2910 C.2    86  LEU86       0.2458
     51  O         29.7440   25.7430   34.2820 O.2    86  LEU86      -0.2730
     52  CB        32.9590   25.9180   34.6760 C.3    86  LEU86       0.0310
     53  CG        34.4250   26.2180   35.0570 C.3    86  LEU86       0.0022
     54  CD1       34.6040   26.9410   36.3850 C.3    86  LEU86       0.0001
     55  CD2       35.2550   24.9370   35.0060 C.3    86  LEU86       0.0001
     56  N         30.5430   27.6790   33.4320 N.am   87  PRO87      -0.2727
     57  CA        29.4990   27.6390   32.3890 C.3    87  PRO87       0.1402
     58  C         29.6540   26.4250   31.4490 C.2    87  PRO87       0.2269
     59  O         30.7520   25.8990   31.2780 O.2    87  PRO87      -0.2865
     60  CB        29.7070   28.9420   31.6160 C.3    87  PRO87       0.0296
     61  CG        30.5720   29.8140   32.4920 C.3    87  PRO87       0.0237
     62  CD        31.3890   28.8890   33.3400 C.3    87  PRO87       0.0939
     63  N         27.8590   33.8450   22.7430 N.3   131  TYR131     -0.1241
     64  CA        28.7470   34.0480   23.9120 C.3   131  TYR131      0.1605
     65  C         29.6400   35.2210   23.5280 C.2   131  TYR131      0.2264
     66  O         30.0300   35.3350   22.3770 O.2   131  TYR131     -0.2867
     67  CB        29.4670   32.7700   24.2970 C.3   131  TYR131      0.0534
     68  CG        28.5550   31.7860   24.9860 C.ar  131  TYR131     -0.0201
     69  CD1       27.8620   30.8070   24.2630 C.ar  131  TYR131     -0.0009
     70  CD2       28.3810   31.8260   26.3700 C.ar  131  TYR131     -0.0009
     71  CE1       27.0500   29.8690   24.9150 C.ar  131  TYR131      0.0417
     72  CE2       27.5590   30.9120   27.0210 C.ar  131  TYR131      0.0417
     73  CZ        26.8960   29.9380   26.2910 C.ar  131  TYR131      0.1957
     74  OH        26.0730   29.0390   26.9540 O.3   131  TYR131     -0.2866
     75  N         32.3310   34.9070   31.2610 N.3   145  VAL145     -0.1245
     76  CA        31.5170   34.3960   30.1500 C.3   145  VAL145      0.1561
     77  C         30.1670   35.0960   30.1670 C.2   145  VAL145      0.2260
     78  O         29.4800   35.0570   31.1850 O.2   145  VAL145     -0.2867
     79  CB        31.3210   32.8560   30.2320 C.3   145  VAL145      0.0252
     80  CG1       30.3570   32.3360   29.1190 C.3   145  VAL145      0.0019
     81  CG2       32.6670   32.1250   30.1710 C.3   145  VAL145      0.0019
     82  N         26.4510   35.1670   28.2400 N.3   147  LEU147     -0.1245
     83  CA        25.4940   34.6320   27.3010 C.3   147  LEU147      0.1561
     84  C         24.5880   35.7650   26.8880 C.2   147  LEU147      0.2260
     85  O         24.0150   36.4400   27.7400 O.2   147  LEU147     -0.2867
     86  CB        24.6660   33.5070   27.9190 C.3   147  LEU147      0.0270
     87  CG        23.5780   32.9260   26.9920 C.3   147  LEU147      0.0019
     88  CD1       24.1450   32.3200   25.7040 C.3   147  LEU147      0.0001
     89  CD2       22.7560   31.9040   27.7560 C.3   147  LEU147      0.0001
     90  N         23.0610   35.7940   31.0540 N.3   156  GLU156     -0.1231
     91  CA        23.8480   35.2110   32.1200 C.3   156  GLU156      0.1699
     92  C         25.2450   35.7630   32.0480 C.2   156  GLU156      0.2592
     93  O         25.7760   35.8950   30.9670 O.2   156  GLU156     -0.2718
     94  CB        23.9280   33.6890   31.9550 C.3   156  GLU156      0.0402
     95  CG        22.6710   32.9770   32.3560 C.3   156  GLU156      0.1161
     96  CD        22.5710   31.5720   31.8050 C.2   156  GLU156      0.3649
     97  OE1       23.5890   31.0110   31.3270 O.co2 156  GLU156     -0.2457
     98  OE2       21.4440   31.0330   31.8480 O.co2 156  GLU156     -0.2457
     99  N         25.8250   36.0880   33.2040 N.am  157  GLN157     -0.1966
    100  CA        27.2410   36.4270   33.2800 C.3   157  GLN157      0.1733
    101  C         27.9790   35.6620   34.3780 C.2   157  GLN157      0.2616
    102  O         27.5290   35.5810   35.5010 O.2   157  GLN157     -0.2715
    103  CB        27.4490   37.9250   33.4700 C.3   157  GLN157      0.0408
    104  CG        28.9400   38.3130   33.5030 C.3   157  GLN157      0.0908
    105  CD        29.1700   39.7220   33.9800 C.2   157  GLN157      0.2608
    106  OE1       28.4120   40.6350   33.6540 O.2   157  GLN157     -0.2717
    107  NE2       30.2060   39.9090   34.7610 N.am  157  GLN157     -0.0878
    108  N         29.1330   35.1170   34.0140 N.am  158  PHE158     -0.1974
    109  CA        30.0250   34.4980   34.9540 C.3   158  PHE158      0.1639
    110  C         31.3600   35.1910   34.9290 C.2   158  PHE158      0.2290
    111  O         31.7690   35.6450   33.8600 O.2   158  PHE158     -0.2864
    112  CB        30.2760   33.0460   34.4550 C.3   158  PHE158      0.0560
    113  CG        31.5730   32.3740   34.9570 C.ar  158  PHE158     -0.0200
    114  CD1       31.5600   31.5380   36.0840 C.ar  158  PHE158     -0.0042
    115  CD2       32.7730   32.5090   34.2520 C.ar  158  PHE158     -0.0042
    116  CE1       32.7330   30.8820   36.5320 C.ar  158  PHE158     -0.0003
    117  CE2       33.9650   31.8730   34.6830 C.ar  158  PHE158     -0.0003
    118  CZ        33.9400   31.0510   35.8330 C.ar  158  PHE158     -0.0000
@<TRIPOS>BOND
     1    66    65    2
     2    63    64    1
     3    65    64    1
     4    64    67    1
     5    69    71   ar
     6    69    68   ar
     7    67    68    1
     8    71    73   ar
     9    68    70   ar
    10    88    87    1
    11    73    74    1
    12    73    72   ar
    13    70    72   ar
    14    84    83    1
    15    84    85    2
    16    87    89    1
    17    87    86    1
    18    83    86    1
    19    83    82    1
    20    80    79    1
    21    76    77    1
    22    76    79    1
    23    76    75    1
    24    77    78    2
    25    81    79    1
    26    93    92    2
    27    90    91    1
    28    59    58    2
    29    97    96   ar
    30    58    57    1
    31    60    57    1
    32    60    61    1
    33    96    98   ar
    34    96    95    1
    35    94    91    1
    36    94    95    1
    37    92    91    1
    38    92    99   am
    39    57    56    1
    40    61    62    1
    41    99   100    1
    42   100   103    1
    43   100   101    1
    44    62    56    1
    45    56    50   am
    46   103   104    1
    47   104   105    1
    48   106   105    2
    49   111   110    2
    50   105   107   am
    51   108   101   am
    52   108   109    1
    53   115   117   ar
    54   115   113   ar
    55    51    50    2
    56    50    49    1
    57   101   102    2
    58   112   109    1
    59   112   113    1
    60    52    53    1
    61    52    49    1
    62   117   118   ar
    63   110   109    1
    64   113   114   ar
    65    55    53    1
    66    53    54    1
    67    49    48    1
    68    21    20    2
    69   118   116   ar
    70   114   116   ar
    71    30    27    1
    72    30    31    1
    73    27    28    1
    74    27    26    1
    75    41    39   ar
    76    48    44   am
    77    20    26   am
    78    20    19    1
    79    28    29    2
    80    22    24    1
    81    22    19    1
    82    22    23    1
    83    45    44    2
    84    34    35    1
    85    25    23    1
    86    44    43    1
    87    31    33   am
    88    31    32    2
    89    47    46    1
    90    39    40   ar
    91    39    38    1
    92    19    18    1
    93    35    36    1
    94    35    38    1
    95    18    14   am
    96    42    43    1
    97    42    36   am
    98    17    16    1
    99    43    46    1
   100    36    37    2
   101    13    14    1
   102    13    16    1
   103    13    12    1
   104    14    15    2
   105     7     9   ar
   106     7     6   ar
   107     9    11   ar
   108     5     6    1
   109     5     2    1
   110     6     8   ar
   111    11    10   ar
   112     8    10   ar
   113     2     3    1
   114     2     1    1
   115     3     4    2
