@<TRIPOS>MOLECULE
tmp/2v4jE01.pdb
 129 126 0 0 0
SMALL
GASTEIGER

@<TRIPOS>ATOM
      1  N         -7.2440   46.9290   52.1440 N.3    70  ARG70      -0.1245
      2  CA        -5.9000   47.3020   51.7550 C.3    70  ARG70       0.1563
      3  C         -5.8440   48.7410   51.2340 C.2    70  ARG70       0.2260
      4  O         -5.0380   49.5330   51.6930 O.2    70  ARG70      -0.2867
      5  CB        -5.3810   46.3070   50.6980 C.3    70  ARG70       0.0307
      6  CG        -3.8980   46.0760   50.6370 C.3    70  ARG70       0.0489
      7  CD        -3.1610   47.2510   50.0650 C.3    70  ARG70       0.2205
      8  NE        -2.4180   46.9400   48.8670 N.pl3  70  ARG70      -0.0865
      9  CZ        -2.9180   46.9830   47.6510 C.cat  70  ARG70       0.5346
     10  NH1       -4.1760   47.3220   47.4490 N.pl3  70  ARG70       0.1354
     11  NH2       -2.1500   46.7220   46.6420 N.pl3  70  ARG70       0.1354
     12  N         -3.2320   41.5680   46.5000 N.3   143  HIS143     -0.1226
     13  CA        -3.5530   42.1450   45.2000 C.3   143  HIS143      0.1752
     14  C         -2.7750   43.3910   44.8110 C.2   143  HIS143      0.2597
     15  O         -1.8520   43.8200   45.5090 O.2   143  HIS143     -0.2718
     16  CB        -5.0610   42.3240   45.0070 C.3   143  HIS143      0.0759
     17  CG        -5.6750   43.3300   45.9320 C.ar  143  HIS143      0.0818
     18  ND1       -5.9660   43.0500   47.2510 N.ar  143  HIS143     -0.2268
     19  CD2       -6.0450   44.6180   45.7300 C.ar  143  HIS143      0.1154
     20  CE1       -6.4970   44.1190   47.8170 C.ar  143  HIS143      0.1986
     21  NE2       -6.5660   45.0810   46.9130 N.ar  143  HIS143     -0.2212
     22  N         -3.1370   43.9470   43.6620 N.am  144  THR144     -0.1939
     23  CA        -2.3910   45.0470   43.0670 C.3   144  THR144      0.2028
     24  C         -3.1940   46.3310   42.8470 C.2   144  THR144      0.2642
     25  O         -4.2070   46.5630   43.5130 O.2   144  THR144     -0.2714
     26  CB        -1.7570   44.5520   41.7670 C.3   144  THR144      0.1808
     27  OG1       -2.7440   43.8140   41.0300 O.3   144  THR144     -0.2208
     28  CG2       -0.5970   43.6180   42.0770 C.3   144  THR144      0.0379
     29  N         -2.7300   47.1550   41.9060 N.am  145  GLN145     -0.1976
     30  CA        -3.3470   48.4500   41.6170 C.3   145  GLN145      0.1601
     31  C         -4.5640   48.4420   40.6950 C.2   145  GLN145      0.2287
     32  O         -5.5000   49.2240   40.8910 O.2   145  GLN145     -0.2864
     33  CB        -2.3020   49.4210   41.0730 C.3   145  GLN145      0.0394
     34  CG        -1.2100   49.7620   42.0620 C.3   145  GLN145      0.0908
     35  CD        -1.7610   50.2270   43.3980 C.2   145  GLN145      0.2608
     36  OE1       -1.6400   49.5370   44.4100 O.2   145  GLN145     -0.2717
     37  NE2       -2.3730   51.4030   43.4040 N.am  145  GLN145     -0.0878
     38  N         -4.7070   52.7590   39.6040 N.3   149  HIS149     -0.1226
     39  CA        -3.4530   53.4990   39.5020 C.3   149  HIS149      0.1752
     40  C         -2.4440   53.0730   38.4350 C.2   149  HIS149      0.2596
     41  O         -1.5240   53.8290   38.1320 O.2   149  HIS149     -0.2718
     42  CB        -2.7600   53.5420   40.8600 C.3   149  HIS149      0.0759
     43  CG        -1.7560   54.6430   40.9930 C.ar  149  HIS149      0.0818
     44  ND1       -0.4110   54.4540   40.7620 N.ar  149  HIS149     -0.2268
     45  CD2       -1.8970   55.9400   41.3560 C.ar  149  HIS149      0.1154
     46  CE1        0.2360   55.5880   40.9710 C.ar  149  HIS149      0.1986
     47  NE2       -0.6430   56.5050   41.3360 N.ar  149  HIS149     -0.2212
     48  N         -2.5840   51.8700   37.8870 N.am  150  CYS150     -0.1956
     49  CA        -1.6130   51.3830   36.9120 C.3   150  CYS150      0.1843
     50  C         -1.9750   51.5660   35.4400 C.2   150  CYS150      0.2625
     51  O         -3.1470   51.5550   35.0610 O.2   150  CYS150     -0.2714
     52  CB        -1.2230   49.9310   37.2000 C.3   150  CYS150      0.0997
     53  SG         0.3210   49.4020   36.3960 S.3   150  CYS150     -0.0797
     54  N         -0.9430   51.7020   34.6100 N.am  151  HIS151     -0.1959
     55  CA        -1.1200   51.8860   33.1730 C.3   151  HIS151      0.1787
     56  C         -1.0140   50.5960   32.3500 C.2   151  HIS151      0.2620
     57  O         -1.3790   50.5780   31.1750 O.2   151  HIS151     -0.2715
     58  CB        -0.1460   52.9370   32.6420 C.3   151  HIS151      0.0785
     59  CG         1.2940   52.5610   32.8030 C.ar  151  HIS151      0.0821
     60  ND1        1.8910   52.4190   34.0370 N.ar  151  HIS151     -0.2267
     61  CD2        2.2570   52.3020   31.8870 C.ar  151  HIS151      0.1154
     62  CE1        3.1590   52.0850   33.8740 C.ar  151  HIS151      0.1986
     63  NE2        3.4070   52.0120   32.5780 N.ar  151  HIS151     -0.2212
     64  N         -0.5430   49.5130   32.9610 N.am  152  THR152     -0.1951
     65  CA        -0.4130   48.2420   32.2380 C.3   152  THR152      0.1897
     66  C         -1.4130   47.1470   32.6030 C.2   152  THR152      0.2313
     67  O         -1.2390   46.0000   32.2080 O.2   152  THR152     -0.2863
     68  CB         1.0320   47.6990   32.2770 C.3   152  THR152      0.1794
     69  OG1        1.4080   47.4170   33.6290 O.3   152  THR152     -0.2208
     70  CG2        2.0020   48.7090   31.6950 C.3   152  THR152      0.0378
     71  N          3.0210   40.8150   34.9590 N.3   190  ASN190     -0.1225
     72  CA         4.1330   41.2450   35.8070 C.3   190  ASN190      0.1785
     73  C          3.9530   40.5810   37.1620 C.2   190  ASN190      0.2597
     74  O          4.8810   40.4910   37.9670 O.2   190  ASN190     -0.2718
     75  CB         4.1530   42.7630   35.9510 C.3   190  ASN190      0.1169
     76  CG         4.7560   43.4360   34.7460 C.2   190  ASN190      0.2627
     77  OD1        5.3810   42.7760   33.9160 O.2   190  ASN190     -0.2716
     78  ND2        4.5310   44.7370   34.6090 N.am  190  ASN190     -0.0877
     79  N          2.7390   40.0940   37.3830 N.am  191  MET191     -0.1965
     80  CA         2.3880   39.3550   38.5850 C.3   191  MET191      0.1736
     81  C          2.9240   39.9510   39.8680 C.2   191  MET191      0.2617
     82  O          3.4790   39.2220   40.7010 O.2   191  MET191     -0.2715
     83  CB         2.8480   37.8950   38.4610 C.3   191  MET191      0.0427
     84  CG         1.8190   36.9910   37.8140 C.3   191  MET191      0.0599
     85  SD         2.5070   35.4630   37.1760 S.3   191  MET191     -0.1393
     86  CE         1.4160   35.1850   35.7460 C.3   191  MET191      0.0692
     87  N          2.7810   41.2690   40.0190 N.am  192  CYS192     -0.1954
     88  CA         3.1990   41.9430   41.2450 C.3   192  CYS192      0.1843
     89  C          2.4160   41.1860   42.3180 C.2   192  CYS192      0.2626
     90  O          1.2710   40.7860   42.0770 O.2   192  CYS192     -0.2714
     91  CB         2.7540   43.4210   41.2380 C.3   192  CYS192      0.0997
     92  SG         3.5540   44.5640   40.0280 S.3   192  CYS192     -0.0797
     93  N          3.0370   40.9280   43.4660 N.am  193  GLY193     -0.1954
     94  CA         2.3560   40.1880   44.5110 C.3   193  GLY193      0.1869
     95  C          2.7200   38.7130   44.6010 C.2   193  GLY193      0.2309
     96  O          3.8960   38.3500   44.5770 O.2   193  GLY193     -0.2863
     97  N          1.7010   33.9090   41.3620 N.3   196  HIS196     -0.1241
     98  CA         2.4800   32.7920   40.8330 C.3   196  HIS196      0.1621
     99  C          2.8680   31.7450   41.8850 C.2   196  HIS196      0.2264
    100  O          3.4480   30.7110   41.5520 O.2   196  HIS196     -0.2867
    101  CB         3.7350   33.3220   40.1350 C.3   196  HIS196      0.0745
    102  CG         4.6270   34.1170   41.0330 C.ar  196  HIS196      0.0817
    103  ND1        4.1870   35.2340   41.7140 N.ar  196  HIS196     -0.2268
    104  CD2        5.9130   33.9270   41.4100 C.ar  196  HIS196      0.1154
    105  CE1        5.1740   35.7130   42.4500 C.ar  196  HIS196      0.1986
    106  NE2        6.2300   34.9350   42.2870 N.ar  196  HIS196     -0.2212
    107  N          4.9520   43.3990   27.6450 N.3   262  ASN262     -0.1240
    108  CA         6.2080   43.9210   28.1780 C.3   262  ASN262      0.1653
    109  C          6.8230   45.0160   27.3170 C.2   262  ASN262      0.2266
    110  O          7.5210   45.8890   27.8310 O.2   262  ASN262     -0.2867
    111  CB         7.2200   42.8040   28.4420 C.3   262  ASN262      0.1155
    112  CG         8.3250   43.2270   29.4060 C.2   262  ASN262      0.2627
    113  OD1        8.0560   43.7750   30.4710 O.2   262  ASN262     -0.2716
    114  ND2        9.5760   42.9810   29.0250 N.am  262  ASN262     -0.0877
    115  N          5.4380   48.2650   28.4250 N.3   265  THR265     -0.1203
    116  CA         6.0130   48.7050   29.6840 C.3   265  THR265      0.1994
    117  C          7.2330   49.5680   29.3630 C.2   265  THR265      0.2617
    118  O          7.4840   50.5900   30.0030 O.2   265  THR265     -0.2717
    119  CB         6.4180   47.4870   30.5460 C.3   265  THR265      0.1784
    120  OG1        5.2410   46.8580   31.0750 O.3   265  THR265     -0.2211
    121  CG2        7.3620   47.9090   31.6840 C.3   265  THR265      0.0376
    122  N          7.9960   49.1280   28.3670 N.am  266  MET266     -0.1979
    123  CA         9.2220   49.8140   27.9660 C.3   266  MET266      0.1605
    124  C          9.0430   50.9530   26.9510 C.2   266  MET266      0.2287
    125  O          9.8540   51.8730   26.9050 O.2   266  MET266     -0.2864
    126  CB        10.2310   48.7980   27.4300 C.3   266  MET266      0.0413
    127  CG        10.5940   47.7150   28.4320 C.3   266  MET266      0.0598
    128  SD        11.0910   48.4080   30.0060 S.3   266  MET266     -0.1393
    129  CE        12.5480   49.3350   29.5160 C.3   266  MET266      0.0692
@<TRIPOS>BOND
     1   125   124    2
     2   124   123    1
     3   109   110    2
     4   109   108    1
     5   126   123    1
     6   126   127    1
     7   107   108    1
     8   123   122    1
     9   108   111    1
    10   122   117   am
    11   115   116    1
    12   127   128    1
    13   111   112    1
    14   114   112   am
    15   117   116    1
    16   117   118    2
    17   112   113    2
    18   129   128    1
    19   116   119    1
    20   119   120    1
    21   119   121    1
    22    57    56    2
    23    70    68    1
    24    61    63   ar
    25    61    59   ar
    26    67    66    2
    27    65    68    1
    28    65    66    1
    29    65    64    1
    30    68    69    1
    31    56    64   am
    32    56    55    1
    33    63    62   ar
    34    58    59    1
    35    58    55    1
    36    59    60   ar
    37    55    54    1
    38    62    60   ar
    39    77    76    2
    40    78    76   am
    41    54    50   am
    42    76    75    1
    43    71    72    1
    44    51    50    2
    45    50    49    1
    46    86    85    1
    47    72    75    1
    48    72    73    1
    49    53    52    1
    50    49    52    1
    51    49    48    1
    52    73    79   am
    53    73    74    2
    54    85    84    1
    55    79    80    1
    56    84    83    1
    57    48    40   am
    58    41    40    2
    59    40    39    1
    60    83    80    1
    61    80    81    1
    62    39    38    1
    63    39    42    1
    64    81    87   am
    65    81    82    2
    66    87    88    1
    67    92    91    1
    68   101    98    1
    69   101   102    1
    70    31    32    2
    71    31    30    1
    72    44    46   ar
    73    44    43   ar
    74    98    97    1
    75    98    99    1
    76    42    43    1
    77    46    47   ar
    78    43    45   ar
    79    27    26    1
    80   102   104   ar
    81   102   103   ar
    82    33    30    1
    83    33    34    1
    84    91    88    1
    85    88    89    1
    86    47    45   ar
    87   104   106   ar
    88   100    99    2
    89    30    29    1
    90   103   105   ar
    91    26    28    1
    92    26    23    1
    93    29    24   am
    94    34    35    1
    95    90    89    2
    96   106   105   ar
    97    89    93   am
    98    24    23    1
    99    24    25    2
   100    23    22    1
   101    35    37   am
   102    35    36    2
   103    93    94    1
   104    22    14   am
   105    94    95    1
   106    96    95    2
   107    14    13    1
   108    14    15    2
   109    16    13    1
   110    16    17    1
   111    13    12    1
   112    19    17   ar
   113    19    21   ar
   114    17    18   ar
   115    11     9    1
   116    21    20   ar
   117    18    20   ar
   118    10     9    1
   119     9     8    2
   120     8     7    1
   121     7     6    1
   122     6     5    1
   123     5     2    1
   124     3     4    2
   125     3     2    1
   126     2     1    1
