@<TRIPOS>MOLECULE
tmp/2v4jD01.pdb
 205 190 0 0 0
SMALL
GASTEIGER

@<TRIPOS>ATOM
      1  N          3.4440   55.4410   32.2810 N.3    67  GLY67      -0.1225
      2  CA         4.5160   55.8480   33.1740 C.3    67  GLY67       0.1811
      3  C          4.3790   57.1640   33.9250 C.2    67  GLY67       0.2280
      4  O          3.2860   57.5590   34.3420 O.2    67  GLY67      -0.2866
      5  N          5.9530   57.1840   42.6930 N.3    80  ILE80      -0.1245
      6  CA         5.3970   56.6450   41.4610 C.3    80  ILE80       0.1561
      7  C          4.4270   57.6480   40.8380 C.2    80  ILE80       0.2260
      8  O          3.2470   57.6680   41.1710 O.2    80  ILE80      -0.2867
      9  CB         4.6950   55.2700   41.7080 C.3    80  ILE80       0.0252
     10  CG1        5.6410   54.2830   42.4120 C.3    80  ILE80       0.0019
     11  CG2        4.1430   54.6960   40.4000 C.3    80  ILE80       0.0019
     12  CD1        6.8090   53.8190   41.5590 C.3    80  ILE80       0.0001
     13  N          1.8780   59.4670   38.2500 N.3    82  ARG82      -0.1245
     14  CA         0.7910   58.9680   37.4090 C.3    82  ARG82       0.1563
     15  C         -0.1300   60.1090   36.9780 C.2    82  ARG82       0.2260
     16  O         -0.4150   61.0210   37.7630 O.2    82  ARG82      -0.2867
     17  CB        -0.0020   57.8640   38.1100 C.3    82  ARG82       0.0307
     18  CG        -0.6790   56.8910   37.1440 C.3    82  ARG82       0.0489
     19  CD         0.3570   56.1450   36.2910 C.3    82  ARG82       0.2205
     20  NE         0.7120   54.8490   36.8670 N.pl3  82  ARG82      -0.0865
     21  CZ         1.9090   54.2750   36.7570 C.cat  82  ARG82       0.5346
     22  NH1        2.8810   54.8790   36.0900 N.pl3  82  ARG82       0.1354
     23  NH2        2.1410   53.0900   37.3130 N.pl3  82  ARG82       0.1354
     24  N          1.8590   58.4260   43.6760 N.3    98  THR98      -0.1218
     25  CA         1.8670   57.5710   44.8520 C.3    98  THR98       0.1862
     26  C          3.1910   57.7710   45.5520 C.2    98  THR98       0.2287
     27  O          4.2290   57.8330   44.9040 O.2    98  THR98      -0.2866
     28  CB         1.6800   56.0950   44.4550 C.3    98  THR98       0.1770
     29  OG1        0.2860   55.8210   44.2650 O.3    98  THR98      -0.2211
     30  CG2        2.2610   55.1670   45.5120 C.3    98  THR98       0.0375
     31  N          5.7670   56.2130   48.3780 N.3   100  ARG100     -0.1245
     32  CA         6.0980   55.0300   49.1570 C.3   100  ARG100      0.1563
     33  C          6.8550   55.4650   50.4080 C.2   100  ARG100      0.2260
     34  O          7.8910   56.1290   50.3220 O.2   100  ARG100     -0.2867
     35  CB         6.9260   54.0380   48.3260 C.3   100  ARG100      0.0307
     36  CG         6.1860   53.4890   47.1030 C.3   100  ARG100      0.0489
     37  CD         7.0890   52.6350   46.2160 C.3   100  ARG100      0.2205
     38  NE         6.3270   51.9640   45.1650 N.pl3 100  ARG100     -0.0865
     39  CZ         6.8030   50.9840   44.4050 C.cat 100  ARG100      0.5346
     40  NH1        8.0480   50.5570   44.5730 N.pl3 100  ARG100      0.1354
     41  NH2        6.0310   50.4260   43.4800 N.pl3 100  ARG100      0.1354
     42  N         -2.7200   52.8240   50.7880 N.3   130  ASN130     -0.1240
     43  CA        -2.6010   51.3850   50.6050 C.3   130  ASN130      0.1653
     44  C         -1.8220   50.9300   51.8310 C.2   130  ASN130      0.2266
     45  O         -0.6810   51.3480   52.0510 O.2   130  ASN130     -0.2867
     46  CB        -1.8140   51.0320   49.3370 C.3   130  ASN130      0.1155
     47  CG        -2.7070   50.8520   48.1140 C.2   130  ASN130      0.2627
     48  OD1       -2.2790   50.2950   47.1020 O.2   130  ASN130     -0.2716
     49  ND2       -3.9340   51.3640   48.1850 N.am  130  ASN130     -0.0877
     50  N         -0.7640   47.4660   53.1810 N.3   132  HIS132     -0.1226
     51  CA         0.3940   48.1730   52.6420 C.3   132  HIS132      0.1752
     52  C          0.6850   47.6840   51.2120 C.2   132  HIS132      0.2597
     53  O         -0.0220   46.8180   50.6840 O.2   132  HIS132     -0.2718
     54  CB         1.6160   47.9000   53.5220 C.3   132  HIS132      0.0759
     55  CG         1.4210   48.2890   54.9540 C.ar  132  HIS132      0.0818
     56  ND1        2.2010   49.2390   55.5810 N.ar  132  HIS132     -0.2268
     57  CD2        0.4960   47.9010   55.8640 C.ar  132  HIS132      0.1154
     58  CE1        1.7820   49.3990   56.8230 C.ar  132  HIS132      0.1986
     59  NE2        0.7480   48.6000   57.0190 N.ar  132  HIS132     -0.2212
     60  N          1.7320   48.2260   50.5950 N.am  133  GLY133     -0.1942
     61  CA         2.1390   47.7770   49.2750 C.3   133  GLY133      0.2014
     62  C          2.6450   46.3450   49.4000 C.2   133  GLY133      0.2640
     63  O          3.0430   45.9240   50.4890 O.2   133  GLY133     -0.2714
     64  N          2.6280   45.5900   48.3020 N.am  134  SER134     -0.1935
     65  CA         3.0800   44.1920   48.3370 C.3   134  SER134      0.2055
     66  C          4.5350   44.0250   48.7950 C.2   134  SER134      0.2644
     67  O          4.9150   42.9890   49.3350 O.2   134  SER134     -0.2714
     68  CB         2.8140   43.4860   47.0070 C.3   134  SER134      0.2130
     69  OG         1.4210   43.3900   46.7560 O.3   134  SER134     -0.2179
     70  N          5.3330   45.0720   48.6320 N.am  135  THR135     -0.1936
     71  CA         6.7230   45.0290   49.0720 C.3   135  THR135      0.2028
     72  C          6.8800   45.3870   50.5540 C.2   135  THR135      0.2643
     73  O          7.9240   45.1170   51.1580 O.2   135  THR135     -0.2714
     74  CB         7.6420   45.8710   48.1680 C.3   135  THR135      0.1808
     75  OG1        7.3930   45.5400   46.7960 O.3   135  THR135     -0.2208
     76  CG2        9.1100   45.6010   48.5040 C.3   135  THR135      0.0379
     77  N          5.8420   45.9840   51.1370 N.am  136  GLY136     -0.1939
     78  CA         5.8570   46.3600   52.5440 C.3   136  GLY136      0.2014
     79  C          5.6940   47.8450   52.8390 C.2   136  GLY136      0.2638
     80  O          5.3960   48.2310   53.9680 O.2   136  GLY136     -0.2714
     81  N          5.8870   48.6810   51.8240 N.am  137  ASP137     -0.1971
     82  CA         5.7920   50.1280   52.0000 C.3   137  ASP137      0.1709
     83  C          4.4110   50.6430   52.3730 C.2   137  ASP137      0.2293
     84  O          3.3890   50.1210   51.9170 O.2   137  ASP137     -0.2864
     85  CB         6.2290   50.8530   50.7240 C.3   137  ASP137      0.1436
     86  CG         7.6980   50.6780   50.4210 C.2   137  ASP137      0.3671
     87  OD1        8.5250   51.3400   51.0820 O.co2 137  ASP137     -0.2456
     88  OD2        8.0220   49.9240   49.4790 O.co2 137  ASP137     -0.2456
     89  N          1.7200   53.1560   51.5840 N.3   139  VAL139     -0.1245
     90  CA         1.4560   53.8170   50.3180 C.3   139  VAL139      0.1561
     91  C          0.4790   54.9800   50.4570 C.2   139  VAL139      0.2260
     92  O         -0.6640   54.7910   50.8670 O.2   139  VAL139     -0.2867
     93  CB         0.9640   52.8140   49.2470 C.3   139  VAL139      0.0252
     94  CG1        0.3170   53.5520   48.0710 C.3   139  VAL139      0.0019
     95  CG2        2.1180   51.9200   48.7770 C.3   139  VAL139      0.0019
     96  N         14.9100   47.5980   46.8840 N.3   171  ARG171     -0.1245
     97  CA        13.5740   47.9710   47.3240 C.3   171  ARG171      0.1563
     98  C         13.4470   47.8140   48.8310 C.2   171  ARG171      0.2260
     99  O         14.3390   47.2720   49.4850 O.2   171  ARG171     -0.2867
    100  CB        12.5390   47.0910   46.6310 C.3   171  ARG171      0.0307
    101  CG        12.6520   47.1220   45.1280 C.3   171  ARG171      0.0489
    102  CD        12.4220   48.5320   44.6080 C.3   171  ARG171      0.2205
    103  NE        12.2690   48.5550   43.1570 N.pl3 171  ARG171     -0.0865
    104  CZ        11.1760   48.1540   42.5190 C.cat 171  ARG171      0.5346
    105  NH1       10.1420   47.7040   43.2060 N.pl3 171  ARG171      0.1354
    106  NH2       11.1100   48.2070   41.1970 N.pl3 171  ARG171      0.1354
    107  N         18.8830   46.3000   37.6640 N.3   211  TYR211     -0.1227
    108  CA        17.4440   46.1380   37.7790 C.3   211  TYR211      0.1736
    109  C         17.1160   46.1970   39.2520 C.2   211  TYR211      0.2595
    110  O         17.9840   46.4960   40.0710 O.2   211  TYR211     -0.2718
    111  CB        17.0400   44.7720   37.2090 C.3   211  TYR211      0.0548
    112  CG        15.6150   44.6770   36.7090 C.ar  211  TYR211     -0.0200
    113  CD1       14.8490   45.8160   36.4730 C.ar  211  TYR211     -0.0009
    114  CD2       15.0480   43.4370   36.4310 C.ar  211  TYR211     -0.0009
    115  CE1       13.5440   45.7150   36.0220 C.ar  211  TYR211      0.0417
    116  CE2       13.7590   43.3280   35.9650 C.ar  211  TYR211      0.0417
    117  CZ        13.0070   44.4630   35.7640 C.ar  211  TYR211      0.1957
    118  OH        11.7110   44.3370   35.3050 O.3   211  TYR211     -0.2866
    119  N         15.8690   45.9060   39.5890 N.am  212  LYS212     -0.1980
    120  CA        15.4470   45.9210   40.9850 C.3   212  LYS212      0.1596
    121  C         16.0430   44.7330   41.7500 C.2   212  LYS212      0.2287
    122  O         16.4120   43.7240   41.1570 O.2   212  LYS212     -0.2864
    123  CB        13.9160   45.8970   41.0830 C.3   212  LYS212      0.0298
    124  CG        13.3110   44.5350   40.7870 C.3   212  LYS212      0.0038
    125  CD        11.7860   44.5670   40.8630 C.3   212  LYS212      0.0206
    126  CE        11.1740   44.8930   39.5130 C.3   212  LYS212      0.1093
    127  NZ         9.6850   44.8980   39.5760 N.3   212  LYS212     -0.1314
    128  N         15.4240   42.7820   45.7900 N.3   214  LYS214     -0.1245
    129  CA        14.6670   42.7490   47.0390 C.3   214  LYS214      0.1561
    130  C         15.2620   41.8180   48.0950 C.2   214  LYS214      0.2260
    131  O         15.8250   40.7720   47.7680 O.2   214  LYS214     -0.2867
    132  CB        13.2200   42.3210   46.7710 C.3   214  LYS214      0.0271
    133  CG        12.4720   43.2540   45.8640 C.3   214  LYS214      0.0035
    134  CD        11.1420   42.6820   45.4060 C.3   214  LYS214      0.0206
    135  CE        10.4610   43.6380   44.4330 C.3   214  LYS214      0.1093
    136  NZ         9.0680   43.2270   44.0850 N.3   214  LYS214     -0.1314
    137  N         14.0410   39.8160   51.6930 N.3   216  LYS216     -0.1245
    138  CA        12.9020   39.4460   52.5380 C.3   216  LYS216      0.1561
    139  C         13.4100   38.4690   53.5960 C.2   216  LYS216      0.2260
    140  O         14.2680   37.6320   53.3130 O.2   216  LYS216     -0.2867
    141  CB        11.7370   38.8640   51.7440 C.3   216  LYS216      0.0271
    142  CG        10.7790   39.9080   51.1910 C.3   216  LYS216      0.0035
    143  CD         9.5430   39.2500   50.5570 C.3   216  LYS216      0.0206
    144  CE         8.5330   40.2740   50.0470 C.3   216  LYS216      0.1093
    145  NZ         9.0570   41.0560   48.8900 N.3   216  LYS216     -0.1314
    146  N          9.7080   33.3240   47.3910 N.3   229  ALA229     -0.1231
    147  CA         8.9920   33.6000   46.1490 C.3   229  ALA229      0.1694
    148  C          9.0270   35.0660   45.7160 C.2   229  ALA229      0.2591
    149  O          8.8000   35.3720   44.5480 O.2   229  ALA229     -0.2718
    150  CB         7.5560   33.1380   46.2630 C.3   229  ALA229      0.0304
    151  N          9.2910   35.9680   46.6560 N.am  230  ARG230     -0.1980
    152  CA         9.2120   37.3940   46.3740 C.3   230  ARG230      0.1597
    153  C         10.4040   38.2650   46.7380 C.2   230  ARG230      0.2287
    154  O         10.2680   39.4780   46.9030 O.2   230  ARG230     -0.2864
    155  CB         7.9260   37.9500   46.9630 C.3   230  ARG230      0.0334
    156  CG         6.6780   37.3320   46.3160 C.3   230  ARG230      0.0492
    157  CD         5.4570   37.4020   47.2130 C.3   230  ARG230      0.2205
    158  NE         5.1420   38.7740   47.5960 N.pl3 230  ARG230     -0.0865
    159  CZ         4.1620   39.1060   48.4270 C.cat 230  ARG230      0.5346
    160  NH1        3.4030   38.1620   48.9690 N.pl3 230  ARG230      0.1354
    161  NH2        3.9410   40.3800   48.7150 N.pl3 230  ARG230      0.1354
    162  N         11.9090   35.6370   41.3740 N.3   331  LYS331     -0.1231
    163  CA        11.4470   36.7480   40.5390 C.3   331  LYS331      0.1693
    164  C         10.1740   36.3460   39.7950 C.2   331  LYS331      0.2591
    165  O          9.9160   35.1620   39.5960 O.2   331  LYS331     -0.2718
    166  CB        12.5130   37.1040   39.4990 C.3   331  LYS331      0.0285
    167  CG        12.7950   35.9530   38.5300 C.3   331  LYS331      0.0035
    168  CD        13.5630   36.4010   37.2980 C.3   331  LYS331      0.0206
    169  CE        12.6320   37.0110   36.2700 C.3   331  LYS331      0.1093
    170  NZ        12.2180   36.0240   35.2430 N.3   331  LYS331     -0.1314
    171  N          9.4110   37.3380   39.3420 N.am  332  ALA332     -0.1980
    172  CA         8.1950   37.0680   38.5730 C.3   332  ALA332      0.1597
    173  C          8.5900   36.5980   37.1540 C.2   332  ALA332      0.2287
    174  O          9.7670   36.5780   36.8170 O.2   332  ALA332     -0.2864
    175  CB         7.2990   38.3070   38.5390 C.3   332  ALA332      0.0319
    176  N          8.4980   37.6430   33.7610 N.3   334  ILE334     -0.1245
    177  CA         9.3220   38.4600   32.8710 C.3   334  ILE334      0.1561
    178  C         10.7690   38.4570   33.3510 C.2   334  ILE334      0.2260
    179  O         11.0390   38.7410   34.5100 O.2   334  ILE334     -0.2867
    180  CB         8.7570   39.8930   32.7420 C.3   334  ILE334      0.0252
    181  CG1        7.4290   39.8820   31.9770 C.3   334  ILE334      0.0019
    182  CG2        9.7600   40.8090   32.0620 C.3   334  ILE334      0.0019
    183  CD1        7.5750   39.6060   30.4980 C.3   334  ILE334      0.0001
    184  N         18.3390   45.5340   33.0110 N.3   375  ARG375     -0.1245
    185  CA        17.0310   44.9730   33.3320 C.3   375  ARG375      0.1563
    186  C         17.0440   43.4500   33.5200 C.2   375  ARG375      0.2260
    187  O         16.0620   42.7660   33.2330 O.2   375  ARG375     -0.2867
    188  CB        15.9940   45.3880   32.2850 C.3   375  ARG375      0.0307
    189  CG        15.6680   46.8770   32.3040 C.3   375  ARG375      0.0489
    190  CD        14.5560   47.2210   31.3240 C.3   375  ARG375      0.2205
    191  NE        13.3560   46.4110   31.5400 N.pl3 375  ARG375     -0.0865
    192  CZ        12.3490   46.7580   32.3360 C.cat 375  ARG375      0.5346
    193  NH1       12.3860   47.9080   32.9970 N.pl3 375  ARG375      0.1354
    194  NH2       11.3020   45.9560   32.4690 N.pl3 375  ARG375      0.1354
    195  N         17.2380   40.5050   36.2420 N.3   377  ARG377     -0.1245
    196  CA        17.1330   40.1210   37.6500 C.3   377  ARG377      0.1563
    197  C         18.2640   39.1390   37.9690 C.2   377  ARG377      0.2260
    198  O         18.7390   38.4120   37.0850 O.2   377  ARG377     -0.2867
    199  CB        15.7860   39.4370   37.9190 C.3   377  ARG377      0.0307
    200  CG        14.5590   40.3400   37.7900 C.3   377  ARG377      0.0489
    201  CD        14.5980   41.5010   38.7840 C.3   377  ARG377      0.2205
    202  NE        14.3300   41.1080   40.1710 N.pl3 377  ARG377     -0.0865
    203  CZ        13.1200   40.8950   40.6790 C.cat 377  ARG377      0.5346
    204  NH1       12.9840   40.5680   41.9540 N.pl3 377  ARG377      0.1354
    205  NH2       12.0470   40.9910   39.9180 N.pl3 377  ARG377      0.1354
@<TRIPOS>BOND
     1   183   181    1
     2   190   191    1
     3   190   189    1
     4   191   192    2
     5   181   180    1
     6   182   180    1
     7     1     2    1
     8   188   189    1
     9   188   185    1
    10   192   194    1
    11   192   193    1
    12   180   177    1
    13   177   178    1
    14   177   176    1
    15   184   185    1
    16     2     3    1
    17   187   186    2
    18   185   186    1
    19   178   179    2
    20     3     4    2
    21   170   169    1
    22   118   117    1
    23   117   116   ar
    24   117   115   ar
    25   116   114   ar
    26   115   113   ar
    27    22    21    1
    28   195   196    1
    29   169   168    1
    30    19    20    1
    31    19    18    1
    32   114   112   ar
    33   113   112   ar
    34   112   111    1
    35    21    20    2
    36    21    23    1
    37   174   173    2
    38    15    14    1
    39    15    16    2
    40   198   197    2
    41    18    17    1
    42   173   172    1
    43   111   108    1
    44   168   167    1
    45    14    17    1
    46    14    13    1
    47   196   199    1
    48   196   197    1
    49   107   108    1
    50   108   109    1
    51   200   199    1
    52   200   201    1
    53   167   166    1
    54   175   172    1
    55   172   171    1
    56   201   202    1
    57   109   119   am
    58   109   110    2
    59   171   164   am
    60   166   163    1
    61   126   127    1
    62   126   125    1
    63   119   120    1
    64   165   164    2
    65   164   163    1
    66   205   203    1
    67   202   203    2
    68    11     9    1
    69   163   162    1
    70   203   204    1
    71   124   125    1
    72   124   123    1
    73     7     8    2
    74     7     6    1
    75   120   123    1
    76   120   121    1
    77   122   121    2
    78   106   104    1
    79     6     9    1
    80     6     5    1
    81    12    10    1
    82     9    10    1
    83   104   103    2
    84   104   105    1
    85   103   102    1
    86    41    39    1
    87    24    25    1
    88   136   135    1
    89    29    28    1
    90    39    40    1
    91    39    38    2
    92   135   134    1
    93    28    25    1
    94    28    30    1
    95   149   148    2
    96   102   101    1
    97    25    26    1
    98    27    26    2
    99   101   100    1
   100    38    37    1
   101   134   133    1
   102   148   147    1
   103   148   151   am
   104   128   129    1
   105   133   132    1
   106   147   150    1
   107   147   146    1
   108    37    36    1
   109   156   155    1
   110   156   157    1
   111   152   151    1
   112   152   153    1
   113   152   155    1
   114   100    97    1
   115   153   154    2
   116    69    68    1
   117   132   129    1
   118    75    74    1
   119    96    97    1
   120    68    65    1
   121   129   130    1
   122    48    47    2
   123    36    35    1
   124   157   158    1
   125    97    98    1
   126   158   159    2
   127   131   130    2
   128    94    93    1
   129    47    49   am
   130    47    46    1
   131    74    76    1
   132    74    71    1
   133    64    65    1
   134    64    62   am
   135    35    32    1
   136    65    66    1
   137    31    32    1
   138   159   161    1
   139   159   160    1
   140    70    66   am
   141    70    71    1
   142    95    93    1
   143    66    67    2
   144    98    99    2
   145   145   144    1
   146    71    72    1
   147    32    33    1
   148    93    90    1
   149    61    62    1
   150    61    60    1
   151    46    43    1
   152    62    63    2
   153    88    86   ar
   154   144   143    1
   155    90    91    1
   156    90    89    1
   157    34    33    2
   158    86    85    1
   159    86    87   ar
   160    91    92    2
   161    72    77   am
   162    72    73    2
   163   143   142    1
   164    60    52   am
   165    43    42    1
   166    43    44    1
   167    53    52    2
   168    85    82    1
   169    77    78    1
   170   142   141    1
   171    52    51    1
   172   137   138    1
   173   141   138    1
   174    81    82    1
   175    81    79   am
   176    44    45    2
   177    84    83    2
   178    82    83    1
   179   138   139    1
   180    78    79    1
   181    51    50    1
   182    51    54    1
   183    79    80    2
   184   140   139    2
   185    54    55    1
   186    55    56   ar
   187    55    57   ar
   188    56    58   ar
   189    57    59   ar
   190    58    59   ar
