@<TRIPOS>MOLECULE
tmp/2v4jD00.pdb
 123 116 0 0 0
SMALL
GASTEIGER

@<TRIPOS>ATOM
      1  N          7.7140   44.3250   60.2060 N.3   106  GLY106     -0.1225
      2  CA         6.6710   43.6020   60.9110 C.3   106  GLY106      0.1811
      3  C          5.4320   44.4560   61.0810 C.2   106  GLY106      0.2280
      4  O          4.3860   43.9870   61.5320 O.2   106  GLY106     -0.2866
      5  N         10.0470   41.6980   56.6610 N.3   175  SER175     -0.1202
      6  CA        10.2460   40.4570   57.3860 C.3   175  SER175      0.2020
      7  C          8.9330   39.9440   57.9430 C.2   175  SER175      0.2619
      8  O          7.9220   40.6490   57.9280 O.2   175  SER175     -0.2717
      9  CB        11.2380   40.6730   58.5330 C.3   175  SER175      0.2103
     10  OG        10.6070   41.2980   59.6330 O.3   175  SER175     -0.2182
     11  N          8.9500   38.7060   58.4300 N.am  176  CYS176     -0.1955
     12  CA         7.7810   38.1430   59.0930 C.3   176  CYS176      0.1843
     13  C          7.8070   38.8020   60.4740 C.2   176  CYS176      0.2625
     14  O          8.7520   39.5250   60.7910 O.2   176  CYS176     -0.2714
     15  CB         7.9010   36.6150   59.2300 C.3   176  CYS176      0.0997
     16  SG         9.1630   36.0410   60.3920 S.3   176  CYS176     -0.0797
     17  N          6.7940   38.5680   61.2990 N.am  177  LEU177     -0.1977
     18  CA         6.8130   39.1770   62.6290 C.3   177  LEU177      0.1596
     19  C          7.8990   38.6240   63.5660 C.2   177  LEU177      0.2287
     20  O          8.2830   39.2670   64.5470 O.2   177  LEU177     -0.2864
     21  CB         5.4210   39.2930   63.2530 C.3   177  LEU177      0.0297
     22  CG         4.7200   38.2410   64.1090 C.3   177  LEU177      0.0022
     23  CD1        3.3400   37.9140   63.5470 C.3   177  LEU177      0.0001
     24  CD2        5.5390   36.9960   64.4220 C.3   177  LEU177      0.0001
     25  N          6.3830   37.7510   68.1020 N.3   181  ARG181     -0.1231
     26  CA         5.1680   37.0490   68.4120 C.3   181  ARG181      0.1694
     27  C          4.9780   35.6330   67.8470 C.2   181  ARG181      0.2592
     28  O          3.8960   35.2520   67.4550 O.2   181  ARG181     -0.2718
     29  CB         3.9710   37.9130   68.1330 C.3   181  ARG181      0.0321
     30  CG         2.7760   37.4680   68.8940 C.3   181  ARG181      0.0489
     31  CD         1.5830   38.1850   68.4710 C.3   181  ARG181      0.2205
     32  NE         1.0280   37.5740   67.3090 N.pl3 181  ARG181     -0.0865
     33  CZ         0.3830   38.2330   66.3760 C.cat 181  ARG181      0.5346
     34  NH1        0.2400   39.5220   66.4720 N.pl3 181  ARG181      0.1354
     35  NH2       -0.1090   37.6010   65.3500 N.pl3 181  ARG181      0.1354
     36  N          6.0360   34.8450   67.8670 N.am  182  CYS182     -0.1956
     37  CA         5.9880   33.5100   67.2890 C.3   182  CYS182      0.1843
     38  C          7.0180   32.6270   67.9750 C.2   182  CYS182      0.2625
     39  O          8.1720   33.0300   68.1460 O.2   182  CYS182     -0.2714
     40  CB         6.2810   33.5990   65.7850 C.3   182  CYS182      0.0997
     41  SG         6.2990   32.0160   64.9010 S.3   182  CYS182     -0.0797
     42  N          6.6070   31.4270   68.3740 N.am  183  GLU183     -0.1963
     43  CA         7.5340   30.5010   69.0160 C.3   183  GLU183      0.1733
     44  C          8.3970   29.7400   68.0130 C.2   183  GLU183      0.2616
     45  O          9.2460   28.9480   68.4170 O.2   183  GLU183     -0.2715
     46  CB         6.8100   29.4990   69.9290 C.3   183  GLU183      0.0429
     47  CG         5.3170   29.7390   70.1410 C.3   183  GLU183      0.1163
     48  CD         4.4770   29.4580   68.9130 C.2   183  GLU183      0.3649
     49  OE1        3.9080   28.3450   68.7980 O.co2 183  GLU183     -0.2457
     50  OE2        4.3120   30.3940   68.1070 O.co2 183  GLU183     -0.2457
     51  N          8.1840   29.9740   66.7160 N.am  184  PHE184     -0.1974
     52  CA         8.9460   29.2740   65.6680 C.3   184  PHE184      0.1639
     53  C         10.1830   30.0270   65.2070 C.2   184  PHE184      0.2290
     54  O         11.0090   29.4720   64.4850 O.2   184  PHE184     -0.2864
     55  CB         8.0810   29.0040   64.4310 C.3   184  PHE184      0.0560
     56  CG         6.8130   28.2430   64.7140 C.ar  184  PHE184     -0.0200
     57  CD1        6.7320   27.3530   65.7740 C.ar  184  PHE184     -0.0042
     58  CD2        5.7120   28.3970   63.8940 C.ar  184  PHE184     -0.0042
     59  CE1        5.5620   26.6480   66.0220 C.ar  184  PHE184     -0.0003
     60  CE2        4.5420   27.6900   64.1280 C.ar  184  PHE184     -0.0003
     61  CZ         4.4640   26.8180   65.1970 C.ar  184  PHE184     -0.0000
     62  N          8.3160   28.3260   57.3030 N.3   222  ASN222     -0.1225
     63  CA         6.8910   28.5120   56.9960 C.3   222  ASN222      0.1785
     64  C          6.6890   29.6460   55.9840 C.2   222  ASN222      0.2598
     65  O          5.7050   29.6730   55.2480 O.2   222  ASN222     -0.2718
     66  CB         6.0960   28.7740   58.2790 C.3   222  ASN222      0.1169
     67  CG         5.8250   27.5070   59.0600 C.2   222  ASN222      0.2627
     68  OD1        5.7470   26.4200   58.4850 O.2   222  ASN222     -0.2716
     69  ND2        5.6620   27.6390   60.3730 N.am  222  ASN222     -0.0877
     70  N          7.6500   30.5650   55.9480 N.am  223  GLY223     -0.1942
     71  CA         7.6920   31.6720   55.0060 C.3   223  GLY223      0.2014
     72  C          6.5480   32.6620   55.0460 C.2   223  GLY223      0.2639
     73  O          5.8750   32.8730   54.0330 O.2   223  GLY223     -0.2714
     74  N          6.3630   33.3060   56.1980 N.am  224  CYS224     -0.1953
     75  CA         5.2910   34.2840   56.3790 C.3   224  CYS224      0.1843
     76  C          5.4240   35.5980   55.5800 C.2   224  CYS224      0.2625
     77  O          4.4190   36.2680   55.3470 O.2   224  CYS224     -0.2714
     78  CB         4.9310   34.4820   57.8630 C.3   224  CYS224      0.0997
     79  SG         4.3360   32.9570   58.7340 S.3   224  CYS224     -0.0797
     80  N          6.6370   35.9320   55.1130 N.am  225  VAL225     -0.1963
     81  CA         6.8210   37.0800   54.1990 C.3   225  VAL225      0.1727
     82  C          7.0020   36.5580   52.7660 C.2   225  VAL225      0.2616
     83  O          7.2060   37.3450   51.8400 O.2   225  VAL225     -0.2715
     84  CB         8.0430   37.9890   54.4990 C.3   225  VAL225      0.0290
     85  CG1        7.6330   39.4280   54.7440 C.3   225  VAL225      0.0023
     86  CG2        8.9820   37.4230   55.5270 C.3   225  VAL225      0.0023
     87  N          7.0340   35.2360   52.6030 N.am  226  ALA226     -0.1977
     88  CA         7.2140   34.6370   51.2790 C.3   226  ALA226      0.1597
     89  C          8.5290   35.0720   50.6210 C.2   226  ALA226      0.2287
     90  O          8.5710   35.3650   49.4300 O.2   226  ALA226     -0.2864
     91  CB         6.0100   34.9700   50.3670 C.3   226  ALA226      0.0319
     92  N          9.2910   35.9680   46.6560 N.3   230  ARG230     -0.1245
     93  CA         9.2120   37.3940   46.3740 C.3   230  ARG230      0.1563
     94  C         10.4040   38.2650   46.7380 C.2   230  ARG230      0.2260
     95  O         10.2680   39.4780   46.9030 O.2   230  ARG230     -0.2867
     96  CB         7.9260   37.9500   46.9630 C.3   230  ARG230      0.0307
     97  CG         6.6780   37.3320   46.3160 C.3   230  ARG230      0.0489
     98  CD         5.4570   37.4020   47.2130 C.3   230  ARG230      0.2205
     99  NE         5.1420   38.7740   47.5960 N.pl3 230  ARG230     -0.0865
    100  CZ         4.1620   39.1060   48.4270 C.cat 230  ARG230      0.5346
    101  NH1        3.4030   38.1620   48.9690 N.pl3 230  ARG230      0.1354
    102  NH2        3.9410   40.3800   48.7150 N.pl3 230  ARG230      0.1354
    103  N         -2.5140   21.3960   65.5480 N.3   261  ASN261     -0.1240
    104  CA        -2.2910   22.6210   64.7810 C.3   261  ASN261      0.1653
    105  C         -2.9220   23.8310   65.4800 C.2   261  ASN261      0.2266
    106  O         -3.4270   24.7430   64.8280 O.2   261  ASN261     -0.2867
    107  CB        -2.8410   22.4840   63.3540 C.3   261  ASN261      0.1155
    108  CG        -1.9830   23.2130   62.3170 C.2   261  ASN261      0.2627
    109  OD1       -1.5590   22.6250   61.3200 O.2   261  ASN261     -0.2716
    110  ND2       -1.7200   24.4940   62.5530 N.am  261  ASN261     -0.0877
    111  N         -6.3120   24.9550   64.1770 N.3   264  ALA264     -0.1245
    112  CA        -6.4300   25.5220   62.8350 C.3   264  ALA264      0.1562
    113  C         -7.5180   24.8650   61.9930 C.2   264  ALA264      0.2260
    114  O         -7.9400   25.4160   60.9850 O.2   264  ALA264     -0.2867
    115  CB        -5.0850   25.4480   62.1110 C.3   264  ALA264      0.0290
    116  N          4.4100   22.4570   63.4140 N.3   310  ASN310     -0.1240
    117  CA         3.1800   23.1980   63.1580 C.3   310  ASN310      0.1653
    118  C          1.9880   22.4580   63.7370 C.2   310  ASN310      0.2266
    119  O          1.0180   23.0690   64.1800 O.2   310  ASN310     -0.2867
    120  CB         2.9690   23.3980   61.6530 C.3   310  ASN310      0.1155
    121  CG         4.0170   24.3020   61.0320 C.2   310  ASN310      0.2627
    122  OD1        4.6080   25.1490   61.7050 O.2   310  ASN310     -0.2716
    123  ND2        4.2590   24.1200   59.7410 N.am  310  ASN310     -0.0877
@<TRIPOS>BOND
     1    97    96    1
     2    97    98    1
     3    93    92    1
     4    93    94    1
     5    93    96    1
     6    94    95    2
     7    98    99    1
     8    99   100    2
     9   100   102    1
    10   100   101    1
    11    90    89    2
    12    91    88    1
    13    89    88    1
    14    88    87    1
    15    83    82    2
    16    87    82   am
    17    82    81    1
    18    73    72    2
    19    81    84    1
    20    81    80    1
    21    84    85    1
    22    84    86    1
    23    71    72    1
    24    71    70    1
    25    72    74   am
    26    80    76   am
    27    65    64    2
    28    77    76    2
    29    76    75    1
    30    70    64   am
    31    64    63    1
    32    74    75    1
    33    75    78    1
    34     5     6    1
    35    63    62    1
    36    63    66    1
    37     6     7    1
    38     6     9    1
    39    78    79    1
    40     8     7    2
    41     7    11   am
    42    66    67    1
    43    11    12    1
    44    68    67    2
    45     9    10    1
    46    67    69   am
    47    12    15    1
    48    12    13    1
    49    15    16    1
    50   123   121   am
    51     1     2    1
    52    13    14    2
    53    13    17   am
    54     2     3    1
    55   114   113    2
    56   121   120    1
    57   121   122    2
    58     3     4    2
    59    17    18    1
    60   109   108    2
    61   120   117    1
    62   113   112    1
    63   115   112    1
    64   108   110   am
    65   108   107    1
    66    18    21    1
    67    18    19    1
    68   112   111    1
    69   117   116    1
    70   117   118    1
    71    21    22    1
    72   107   104    1
    73    23    22    1
    74    19    20    2
    75   118   119    2
    76    58    60   ar
    77    58    56   ar
    78    22    24    1
    79    60    61   ar
    80    55    56    1
    81    55    52    1
    82    54    53    2
    83    56    57   ar
    84   104   105    1
    85   104   103    1
    86   106   105    2
    87    41    40    1
    88    61    59   ar
    89    53    52    1
    90    35    33    1
    91    52    51    1
    92    57    59   ar
    93    40    37    1
    94    33    34    1
    95    33    32    2
    96    51    44   am
    97    37    36    1
    98    37    38    1
    99    32    31    1
   100    28    27    2
   101    27    36   am
   102    27    26    1
   103    38    39    2
   104    38    42   am
   105    44    45    2
   106    44    43    1
   107    25    26    1
   108    50    48   ar
   109    29    26    1
   110    29    30    1
   111    42    43    1
   112    31    30    1
   113    49    48   ar
   114    48    47    1
   115    43    46    1
   116    46    47    1
