@<TRIPOS>MOLECULE
tmp/2v4jB01.pdb
 129 126 0 0 0
SMALL
GASTEIGER

@<TRIPOS>ATOM
      1  N         28.3970  -10.1000   22.9660 N.3    70  ARG70      -0.1245
      2  CA        27.7930   -9.3010   21.9200 C.3    70  ARG70       0.1563
      3  C         28.6030   -9.2870   20.6520 C.2    70  ARG70       0.2260
      4  O         28.1530   -9.6630   19.6190 O.2    70  ARG70      -0.2867
      5  CB        27.5710   -7.8780   22.3770 C.3    70  ARG70       0.0307
      6  CG        26.3360   -7.2230   21.8770 C.3    70  ARG70       0.0489
      7  CD        26.4460   -6.6140   20.5120 C.3    70  ARG70       0.2205
      8  NE        27.2700   -5.4370   20.4920 N.pl3  70  ARG70      -0.0865
      9  CZ        26.8650   -4.1990   20.2650 C.cat  70  ARG70       0.5346
     10  NH1       25.6230   -3.9050   20.0720 N.pl3  70  ARG70       0.1354
     11  NH2       27.7240   -3.2490   20.2760 N.pl3  70  ARG70       0.1354
     12  N         25.8830   -1.9590   25.2200 N.3   143  HIS143     -0.1226
     13  CA        27.0460   -1.1650   24.8330 C.3   143  HIS143      0.1752
     14  C         27.2130   -0.8870   23.3430 C.2   143  HIS143      0.2597
     15  O         26.3580   -1.2260   22.5160 O.2   143  HIS143     -0.2718
     16  CB        28.3480   -1.7000   25.4690 C.3   143  HIS143      0.0759
     17  CG        28.7580   -3.0470   24.9650 C.ar  143  HIS143      0.0818
     18  ND1       28.1740   -4.2130   25.4070 N.ar  143  HIS143     -0.2268
     19  CD2       29.6820   -3.4130   24.0440 C.ar  143  HIS143      0.1154
     20  CE1       28.7240   -5.2400   24.7850 C.ar  143  HIS143      0.1986
     21  NE2       29.6510   -4.7820   23.9640 N.ar  143  HIS143     -0.2212
     22  N         28.3000   -0.2100   23.0160 N.am  144  THR144     -0.1939
     23  CA        28.5250    0.2840   21.6550 C.3   144  THR144      0.2028
     24  C         29.7910   -0.2470   20.9700 C.2   144  THR144      0.2642
     25  O         30.3070   -1.3020   21.3350 O.2   144  THR144     -0.2714
     26  CB        28.5070    1.8230   21.6960 C.3   144  THR144      0.1808
     27  OG1       29.3010    2.2490   22.8100 O.3   144  THR144     -0.2208
     28  CG2       27.0830    2.3230   21.9230 C.3   144  THR144      0.0379
     29  N         30.2910    0.5040   19.9850 N.am  145  GLN145     -0.1976
     30  CA        31.4570    0.1040   19.1950 C.3   145  GLN145      0.1601
     31  C         32.8310    0.3870   19.8040 C.2   145  GLN145      0.2287
     32  O         33.7730   -0.3970   19.6210 O.2   145  GLN145     -0.2864
     33  CB        31.3940    0.7310   17.8060 C.3   145  GLN145      0.0394
     34  CG        30.2170    0.2620   16.9720 C.3   145  GLN145      0.0908
     35  CD        30.1260   -1.2500   16.9080 C.2   145  GLN145      0.2608
     36  OE1       29.2040   -1.8410   17.4630 O.2   145  GLN145     -0.2717
     37  NE2       31.0830   -1.8850   16.2310 N.am  145  GLN145     -0.0878
     38  N         35.3720   -0.0190   16.1700 N.3   149  HIS149     -0.1226
     39  CA        34.8190    0.3850   14.8800 C.3   149  HIS149      0.1752
     40  C         34.4520    1.8500   14.6820 C.2   149  HIS149      0.2596
     41  O         34.3050    2.2890   13.5500 O.2   149  HIS149     -0.2718
     42  CB        33.6200   -0.5120   14.5280 C.3   149  HIS149      0.0759
     43  CG        33.2760   -0.5210   13.0700 C.ar  149  HIS149      0.0818
     44  ND1       32.3390    0.3290   12.5160 N.ar  149  HIS149     -0.2268
     45  CD2       33.7480   -1.2760   12.0490 C.ar  149  HIS149      0.1154
     46  CE1       32.2380    0.0860   11.2220 C.ar  149  HIS149      0.1986
     47  NE2       33.0960   -0.8700   10.9100 N.ar  149  HIS149     -0.2212
     48  N         34.2920    2.6070   15.7670 N.am  150  CYS150     -0.1956
     49  CA        33.8730    4.0020   15.6460 C.3   150  CYS150      0.1843
     50  C         34.9770    5.0600   15.6220 C.2   150  CYS150      0.2625
     51  O         36.0430    4.8970   16.2220 O.2   150  CYS150     -0.2714
     52  CB        32.8030    4.3480   16.6880 C.3   150  CYS150      0.0997
     53  SG        31.8560    5.8760   16.3420 S.3   150  CYS150     -0.0797
     54  N         34.6860    6.1690   14.9490 N.am  151  HIS151     -0.1959
     55  CA        35.6350    7.2670   14.8300 C.3   151  HIS151      0.1787
     56  C         35.4270    8.3880   15.8470 C.2   151  HIS151      0.2620
     57  O         36.2980    9.2320   16.0170 O.2   151  HIS151     -0.2715
     58  CB        35.6470    7.8190   13.3970 C.3   151  HIS151      0.0785
     59  CG        34.3370    8.3990   12.9670 C.ar  151  HIS151      0.0821
     60  ND1       33.1980    7.6370   12.8240 N.ar  151  HIS151     -0.2267
     61  CD2       33.9800    9.6690   12.6700 C.ar  151  HIS151      0.1154
     62  CE1       32.1960    8.4130   12.4540 C.ar  151  HIS151      0.1986
     63  NE2       32.6440    9.6500   12.3510 N.ar  151  HIS151     -0.2212
     64  N         34.2940    8.3880   16.5490 N.am  152  THR152     -0.1951
     65  CA        34.0370    9.4420   17.5430 C.3   152  THR152      0.1897
     66  C         34.1190    9.0210   19.0170 C.2   152  THR152      0.2313
     67  O         33.6970    9.7610   19.8880 O.2   152  THR152     -0.2863
     68  CB        32.7180   10.1900   17.2570 C.3   152  THR152      0.1794
     69  OG1       31.6160    9.2810   17.3630 O.3   152  THR152     -0.2208
     70  CG2       32.7310   10.7940   15.8640 C.3   152  THR152      0.0378
     71  N         26.8740   10.7800   22.1990 N.3   190  ASN190     -0.1225
     72  CA        25.7960   10.3990   21.2800 C.3   190  ASN190      0.1785
     73  C         24.9390    9.3590   21.9820 C.2   190  ASN190      0.2597
     74  O         23.7980    9.0970   21.5940 O.2   190  ASN190     -0.2718
     75  CB        26.3540    9.8440   19.9740 C.3   190  ASN190      0.1169
     76  CG        26.8150   10.9380   19.0530 C.2   190  ASN190      0.2627
     77  OD1       26.4890   12.1040   19.2680 O.2   190  ASN190     -0.2716
     78  ND2       27.6220   10.5880   18.0580 N.am  190  ASN190     -0.0877
     79  N         25.5100    8.7930   23.0420 N.am  191  MET191     -0.1965
     80  CA        24.8230    7.8360   23.8960 C.3   191  MET191      0.1736
     81  C         24.0140    6.8010   23.1490 C.2   191  MET191      0.2617
     82  O         22.8650    6.5500   23.5050 O.2   191  MET191     -0.2715
     83  CB        23.9310    8.5640   24.9080 C.3   191  MET191      0.0427
     84  CG        24.6590    8.9330   26.1970 C.3   191  MET191      0.0599
     85  SD        23.8320   10.2150   27.1250 S.3   191  MET191     -0.1393
     86  CE        25.2510   11.0560   27.8800 C.3   191  MET191      0.0692
     87  N         24.6050    6.2220   22.1060 N.am  192  CYS192     -0.1954
     88  CA        23.9590    5.1520   21.3520 C.3   192  CYS192      0.1843
     89  C         23.6750    4.1230   22.4530 C.2   192  CYS192      0.2626
     90  O         24.4810    3.9730   23.3890 O.2   192  CYS192     -0.2714
     91  CB        24.9450    4.5400   20.3230 C.3   192  CYS192      0.0997
     92  SG        25.4590    5.6080   18.9230 S.3   192  CYS192     -0.0797
     93  N         22.5190    3.4700   22.3980 N.am  193  GLY193     -0.1954
     94  CA        22.1830    2.5030   23.4260 C.3   193  GLY193      0.1869
     95  C         21.2330    2.9970   24.5010 C.2   193  GLY193      0.2309
     96  O         20.2220    3.6110   24.1970 O.2   193  GLY193     -0.2863
     97  N         21.6010    6.7530   29.0180 N.3   196  HIS196     -0.1241
     98  CA        20.8260    7.8630   29.5520 C.3   196  HIS196      0.1621
     99  C         19.5590    7.4370   30.2970 C.2   196  HIS196      0.2264
    100  O         18.8690    8.2720   30.8760 O.2   196  HIS196     -0.2867
    101  CB        20.4720    8.8430   28.4260 C.3   196  HIS196      0.0745
    102  CG        19.6860    8.2160   27.3180 C.ar  196  HIS196      0.0817
    103  ND1       20.1410    7.1200   26.6160 N.ar  196  HIS196     -0.2268
    104  CD2       18.4520    8.4870   26.8310 C.ar  196  HIS196      0.1154
    105  CE1       19.2300    6.7560   25.7300 C.ar  196  HIS196      0.1986
    106  NE2       18.1950    7.5690   25.8390 N.ar  196  HIS196     -0.2212
    107  N         30.3510   17.0720   18.7310 N.3   262  ASN262     -0.1240
    108  CA        29.3760   17.0220   17.6420 C.3   262  ASN262      0.1653
    109  C         29.8400   17.7080   16.3670 C.2   262  ASN262      0.2266
    110  O         29.4570   17.3100   15.2660 O.2   262  ASN262     -0.2867
    111  CB        28.0040   17.5530   18.0870 C.3   262  ASN262      0.1155
    112  CG        26.8800   17.1200   17.1520 C.2   262  ASN262      0.2627
    113  OD1       26.7530   15.9440   16.8140 O.2   262  ASN262     -0.2716
    114  ND2       26.0830   18.0810   16.7070 N.am  262  ASN262     -0.0877
    115  N         31.6960   15.1770   14.3640 N.3   265  THR265     -0.1203
    116  CA        30.7990   14.2270   13.7220 C.3   265  THR265      0.1994
    117  C         30.4480   14.7860   12.3360 C.2   265  THR265      0.2617
    118  O         30.3810   14.0530   11.3420 O.2   265  THR265     -0.2717
    119  CB        29.5290   14.0360   14.5620 C.3   265  THR265      0.1784
    120  OG1       29.8330   13.2710   15.7360 O.3   265  THR265     -0.2211
    121  CG2       28.4240   13.3350   13.7480 C.3   265  THR265      0.0376
    122  N         30.2120   16.0920   12.2830 N.am  266  MET266     -0.1979
    123  CA        29.8270   16.7720   11.0440 C.3   266  MET266      0.1605
    124  C         30.9890   17.2120   10.1460 C.2   266  MET266      0.2287
    125  O         30.8300   17.3270    8.9310 O.2   266  MET266     -0.2864
    126  CB        28.9450   17.9840   11.3690 C.3   266  MET266      0.0413
    127  CG        27.6650   17.6130   12.1070 C.3   266  MET266      0.0598
    128  SD        26.8110   16.2470   11.2590 S.3   266  MET266     -0.1393
    129  CE        26.3940   17.1000    9.7490 C.3   266  MET266      0.0692
@<TRIPOS>BOND
     1   125   124    2
     2   129   128    1
     3   124   123    1
     4    47    46   ar
     5    47    45   ar
     6   123   126    1
     7   123   122    1
     8    46    44   ar
     9   128   127    1
    10   118   117    2
    11   126   127    1
    12    45    43   ar
    13   122   117   am
    14   117   116    1
    15    63    62   ar
    16    63    61   ar
    17    62    60   ar
    18    44    43   ar
    19    61    59   ar
    20    60    59   ar
    21    59    58    1
    22    43    42    1
    23    58    55    1
    24    41    40    2
    25   116   115    1
    26   116   119    1
    27   121   119    1
    28    42    39    1
    29   119   120    1
    30    40    39    1
    31    40    48   am
    32    55    54    1
    33    55    56    1
    34    39    38    1
    35    54    50   am
    36   110   109    2
    37    50    49    1
    38    50    51    2
    39    49    48    1
    40    49    52    1
    41    56    57    2
    42    56    64   am
    43    70    68    1
    44    37    35   am
    45    53    52    1
    46   109   108    1
    47    64    65    1
    48   114   112   am
    49   113   112    2
    50    35    34    1
    51    35    36    2
    52    34    33    1
    53   112   111    1
    54    68    69    1
    55    68    65    1
    56    65    66    1
    57   108   111    1
    58   108   107    1
    59    33    30    1
    60    78    76   am
    61    92    91    1
    62    66    67    2
    63    76    77    2
    64    76    75    1
    65    30    31    1
    66    30    29    1
    67     4     3    2
    68    32    31    2
    69    75    72    1
    70    29    24   am
    71    10     9    1
    72     9    11    1
    73     9     8    2
    74    91    88    1
    75     8     7    1
    76     7     6    1
    77     3     2    1
    78    24    25    2
    79    24    23    1
    80    72    73    1
    81    72    71    1
    82    88    87    1
    83    88    89    1
    84    74    73    2
    85    23    26    1
    86    23    22    1
    87    26    28    1
    88    26    27    1
    89     6     5    1
    90     2     5    1
    91     2     1    1
    92    73    79   am
    93    87    81   am
    94    93    89   am
    95    93    94    1
    96    89    90    2
    97    15    14    2
    98    22    14   am
    99    79    80    1
   100    81    82    2
   101    81    80    1
   102    14    13    1
   103    94    95    1
   104    80    83    1
   105    21    19   ar
   106    21    20   ar
   107    19    17   ar
   108    96    95    2
   109    20    18   ar
   110    13    12    1
   111    13    16    1
   112    83    84    1
   113    17    18   ar
   114    17    16    1
   115   105   106   ar
   116   105   103   ar
   117   106   104   ar
   118    84    85    1
   119   103   102   ar
   120   104   102   ar
   121    85    86    1
   122   102   101    1
   123   101    98    1
   124    97    98    1
   125    98    99    1
   126    99   100    2
