@<TRIPOS>MOLECULE
tmp/2v4jB00.pdb
 218 202 0 0 0
SMALL
GASTEIGER

@<TRIPOS>ATOM
      1  N          4.5830  -17.2480   34.9810 N.3    43  HIS43      -0.1241
      2  CA         5.9430  -17.7340   34.8090 C.3    43  HIS43       0.1621
      3  C          6.5960  -17.8220   36.1710 C.2    43  HIS43       0.2264
      4  O          6.1020  -17.2530   37.1440 O.2    43  HIS43      -0.2867
      5  CB         6.7420  -16.7520   33.9440 C.3    43  HIS43       0.0745
      6  CG         7.1230  -15.4950   34.6640 C.ar   43  HIS43       0.0817
      7  ND1        6.2520  -14.4390   34.8360 N.ar   43  HIS43      -0.2268
      8  CD2        8.2750  -15.1370   35.2800 C.ar   43  HIS43       0.1154
      9  CE1        6.8490  -13.4920   35.5370 C.ar   43  HIS43       0.1986
     10  NE2        8.0790  -13.8870   35.8140 N.ar   43  HIS43      -0.2212
     11  N         10.7350  -17.9580   38.0700 N.3    45  ILE45      -0.1245
     12  CA        12.1780  -17.9020   37.8750 C.3    45  ILE45       0.1561
     13  C         12.6680  -19.0440   38.7490 C.2    45  ILE45       0.2260
     14  O         12.7050  -18.9190   39.9740 O.2    45  ILE45      -0.2867
     15  CB        12.7730  -16.5550   38.3160 C.3    45  ILE45       0.0252
     16  CG1       12.2450  -15.4190   37.4360 C.3    45  ILE45       0.0019
     17  CG2       14.2960  -16.6110   38.2720 C.3    45  ILE45       0.0019
     18  CD1       12.5040  -14.0610   38.0100 C.3    45  ILE45       0.0001
     19  N         14.0320  -19.7970   33.5920 N.3    51  LEU51      -0.1245
     20  CA        12.6300  -19.4110   33.7130 C.3    51  LEU51       0.1561
     21  C         11.7150  -20.5340   33.2600 C.2    51  LEU51       0.2260
     22  O         12.1210  -21.4120   32.5060 O.2    51  LEU51      -0.2867
     23  CB        12.3360  -18.1920   32.8370 C.3    51  LEU51       0.0270
     24  CG        13.3440  -17.0380   32.8280 C.3    51  LEU51       0.0019
     25  CD1       13.0410  -16.1180   31.6440 C.3    51  LEU51       0.0001
     26  CD2       13.2590  -16.2720   34.1370 C.3    51  LEU51       0.0001
     27  N          7.5880  -20.8920   31.8090 N.3    53  HIS53      -0.1241
     28  CA         6.3270  -20.2650   31.4240 C.3    53  HIS53       0.1621
     29  C          5.2490  -21.3320   31.2800 C.2    53  HIS53       0.2264
     30  O          5.4670  -22.3760   30.6690 O.2    53  HIS53      -0.2867
     31  CB         6.4850  -19.4630   30.1300 C.3    53  HIS53       0.0745
     32  CG         7.1320  -18.1250   30.3370 C.ar   53  HIS53       0.0817
     33  ND1        8.4860  -17.9810   30.5590 N.ar   53  HIS53      -0.2268
     34  CD2        6.6000  -16.8830   30.4330 C.ar   53  HIS53       0.1154
     35  CE1        8.7610  -16.7060   30.7600 C.ar   53  HIS53       0.1986
     36  NE2        7.6330  -16.0200   30.6980 N.ar   53  HIS53      -0.2212
     37  N         18.9160  -18.5900   30.1650 N.3    65  ARG65      -0.1245
     38  CA        19.5320  -17.3600   29.6690 C.3    65  ARG65       0.1563
     39  C         21.0160  -17.4090   29.9680 C.2    65  ARG65       0.2260
     40  O         21.4310  -17.7240   31.0850 O.2    65  ARG65      -0.2867
     41  CB        18.9070  -16.1190   30.3130 C.3    65  ARG65       0.0307
     42  CG        19.3820  -14.8140   29.6750 C.3    65  ARG65       0.0489
     43  CD        18.6730  -13.6080   30.2780 C.3    65  ARG65       0.2205
     44  NE        17.2160  -13.7140   30.1460 N.pl3  65  ARG65      -0.0865
     45  CZ        16.3510  -13.1220   30.9610 C.cat  65  ARG65       0.5346
     46  NH1       16.7790  -12.3530   31.9520 N.pl3  65  ARG65       0.1354
     47  NH2       15.0550  -13.2840   30.7780 N.pl3  65  ARG65       0.1354
     48  N         17.3880  -17.9800   20.8740 N.3    93  ARG93      -0.1245
     49  CA        16.9350  -16.5880   20.9080 C.3    93  ARG93       0.1563
     50  C         18.0160  -15.6560   21.4720 C.2    93  ARG93       0.2260
     51  O         18.8080  -16.0550   22.3130 O.2    93  ARG93      -0.2867
     52  CB        15.7600  -16.5100   21.8960 C.3    93  ARG93       0.0307
     53  CG        14.5270  -15.8630   21.4120 C.3    93  ARG93       0.0489
     54  CD        13.7650  -15.2690   22.5820 C.3    93  ARG93       0.2205
     55  NE        13.5450  -13.8430   22.3480 N.pl3  93  ARG93      -0.0865
     56  CZ        13.8770  -12.8770   23.1920 C.cat  93  ARG93       0.5346
     57  NH1       13.6350  -11.6160   22.8650 N.pl3  93  ARG93       0.1354
     58  NH2       14.4350  -13.1700   24.3620 N.pl3  93  ARG93       0.1354
     59  N         18.2930  -11.8220   23.4800 N.3    95  THR95      -0.1203
     60  CA        17.4700  -10.8660   24.2190 C.3    95  THR95       0.1994
     61  C         17.7260   -9.4240   23.7890 C.2    95  THR95       0.2619
     62  O         18.5990   -9.1400   22.9550 O.2    95  THR95      -0.2717
     63  CB        17.6680  -10.9940   25.7450 C.3    95  THR95       0.1784
     64  OG1       18.9370  -10.4280   26.1120 O.3    95  THR95      -0.2211
     65  CG2       17.6110  -12.4680   26.1740 C.3    95  THR95       0.0376
     66  N         16.9890   -8.5050   24.3980 N.am   96  THR96      -0.1938
     67  CA        17.1710   -7.0930   24.0990 C.3    96  THR96       0.2028
     68  C         18.4300   -6.5400   24.7850 C.2    96  THR96       0.2642
     69  O         18.8220   -5.4060   24.5310 O.2    96  THR96      -0.2714
     70  CB        15.9220   -6.2790   24.4530 C.3    96  THR96       0.1808
     71  OG1       15.5430   -6.5800   25.7980 O.3    96  THR96      -0.2208
     72  CG2       14.7570   -6.6190   23.5000 C.3    96  THR96       0.0379
     73  N         19.0670   -7.3440   25.6400 N.am   97  ARG97      -0.1977
     74  CA        20.3280   -6.9410   26.2850 C.3    97  ARG97       0.1597
     75  C         21.4520   -7.8490   25.7900 C.2    97  ARG97       0.2287
     76  O         22.4850   -7.9940   26.4430 O.2    97  ARG97      -0.2864
     77  CB        20.2530   -6.9880   27.8160 C.3    97  ARG97       0.0334
     78  CG        19.3160   -5.9660   28.4580 C.3    97  ARG97       0.0492
     79  CD        19.5630   -5.8580   29.9780 C.3    97  ARG97       0.2205
     80  NE        20.7800   -5.1030   30.2890 N.pl3  97  ARG97      -0.0865
     81  CZ        20.8550   -3.7780   30.2280 C.cat  97  ARG97       0.5346
     82  NH1       19.7810   -3.1010   29.8730 N.pl3  97  ARG97       0.1354
     83  NH2       21.9930   -3.1320   30.4900 N.pl3  97  ARG97       0.1354
     84  N         21.7930  -11.1250   25.5250 N.3    99  ASN99      -0.1240
     85  CA        22.0760  -12.3740   26.1880 C.3    99  ASN99       0.1653
     86  C         21.4520  -13.3920   25.2450 C.2    99  ASN99       0.2266
     87  O         20.7200  -13.0150   24.3190 O.2    99  ASN99      -0.2867
     88  CB        21.4000  -12.4210   27.5530 C.3    99  ASN99       0.1155
     89  CG        22.2840  -11.8670   28.6450 C.2    99  ASN99       0.2627
     90  OD1       23.5020  -11.8810   28.5180 O.2    99  ASN99      -0.2716
     91  ND2       21.6820  -11.3370   29.6950 N.am   99  ASN99      -0.0877
     92  N         19.1800  -16.9990   24.8430 N.3   101  GLU101     -0.1245
     93  CA        18.2430  -17.8820   25.5280 C.3   101  GLU101      0.1567
     94  C         18.0220  -19.1830   24.7590 C.2   101  GLU101      0.2260
     95  O         17.8090  -19.1750   23.5450 O.2   101  GLU101     -0.2867
     96  CB        16.9090  -17.1770   25.7880 C.3   101  GLU101      0.0388
     97  CG        16.9710  -16.0810   26.8520 C.3   101  GLU101      0.1160
     98  CD        15.6410  -15.3620   27.0330 C.2   101  GLU101      0.3649
     99  OE1       14.8540  -15.2920   26.0630 O.co2 101  GLU101     -0.2457
    100  OE2       15.3870  -14.8440   28.1380 O.co2 101  GLU101     -0.2457
    101  N         21.3590  -13.5820   34.5300 N.3   133  GLY133     -0.1210
    102  CA        20.7780  -12.3830   33.9530 C.3   133  GLY133      0.1956
    103  C         19.2970  -12.2190   34.2260 C.2   133  GLY133      0.2613
    104  O         18.6260  -11.4510   33.5440 O.2   133  GLY133     -0.2717
    105  N         18.7820  -12.9330   35.2230 N.am  134  THR134     -0.1938
    106  CA        17.3590  -12.8690   35.5530 C.3   134  THR134      0.2028
    107  C         17.0780  -12.1500   36.8560 C.2   134  THR134      0.2642
    108  O         17.9650  -11.9840   37.6850 O.2   134  THR134     -0.2714
    109  CB        16.7140  -14.2670   35.5660 C.3   134  THR134      0.1808
    110  OG1       17.2880  -15.0440   36.6260 O.3   134  THR134     -0.2208
    111  CG2       16.9370  -14.9760   34.2460 C.3   134  THR134      0.0379
    112  N         15.8280  -11.7340   37.0290 N.am  135  GLY135     -0.1954
    113  CA        15.3500  -11.1020   38.2440 C.3   135  GLY135      0.1869
    114  C         16.1650   -9.9420   38.7910 C.2   135  GLY135      0.2309
    115  O         16.7350   -9.1490   38.0340 O.2   135  GLY135     -0.2863
    116  N         22.2690   -7.7710   34.8580 N.3   139  SER139     -0.1217
    117  CA        22.3220   -8.5210   33.6040 C.3   139  SER139      0.1889
    118  C         23.4090   -7.9930   32.6740 C.2   139  SER139      0.2288
    119  O         24.3360   -7.3230   33.1210 O.2   139  SER139     -0.2866
    120  CB        20.9610   -8.5280   32.9100 C.3   139  SER139      0.2089
    121  OG        20.9500   -9.4150   31.8040 O.3   139  SER139     -0.2183
    122  N         24.3730   -3.1500   28.0110 N.3   142  VAL142     -0.1245
    123  CA        24.0670   -2.6460   26.6810 C.3   142  VAL142      0.1561
    124  C         25.2030   -1.6920   26.3260 C.2   142  VAL142      0.2260
    125  O         25.5100   -0.7800   27.0850 O.2   142  VAL142     -0.2867
    126  CB        22.6820   -1.9540   26.6480 C.3   142  VAL142      0.0252
    127  CG1       22.5130   -1.1320   25.3700 C.3   142  VAL142      0.0019
    128  CG2       21.5750   -2.9980   26.7810 C.3   142  VAL142      0.0019
    129  N         16.3290   -4.5190   43.5270 N.3   179  ALA179     -0.1231
    130  CA        15.7020   -4.5300   42.2070 C.3   179  ALA179      0.1679
    131  C         16.7850   -4.7100   41.1430 C.2   179  ALA179      0.2434
    132  O         17.9770   -4.5800   41.4240 O.2   179  ALA179     -0.2733
    133  CB        14.9060   -3.2380   41.9700 C.3   179  ALA179      0.0304
    134  N         16.3850   -5.0530   39.9140 N.am  180  PRO180     -0.2729
    135  CA        17.4160   -5.2480   38.8960 C.3   180  PRO180      0.1401
    136  C         18.2030   -3.9690   38.6830 C.2   180  PRO180      0.2269
    137  O         17.6630   -2.8670   38.7720 O.2   180  PRO180     -0.2865
    138  CB        16.6110   -5.5770   37.6230 C.3   180  PRO180      0.0296
    139  CG        15.1930   -5.8650   38.0940 C.3   180  PRO180      0.0237
    140  CD        15.0200   -5.0740   39.3400 C.3   180  PRO180      0.0939
    141  N         20.5070   -2.1150   35.9030 N.3   182  ARG182     -0.1245
    142  CA        20.8970   -2.1150   34.5070 C.3   182  ARG182      0.1563
    143  C         22.1180   -1.2480   34.3040 C.2   182  ARG182      0.2260
    144  O         22.1350   -0.0960   34.7100 O.2   182  ARG182     -0.2867
    145  CB        19.7580   -1.6060   33.6300 C.3   182  ARG182      0.0307
    146  CG        19.0580   -2.7160   32.8980 C.3   182  ARG182      0.0489
    147  CD        17.9970   -3.3520   33.7500 C.3   182  ARG182      0.2205
    148  NE        17.0580   -4.0730   32.9030 N.pl3 182  ARG182     -0.0865
    149  CZ        16.8650   -5.3860   32.9390 C.cat 182  ARG182      0.5346
    150  NH1       17.5240   -6.1410   33.8080 N.pl3 182  ARG182      0.1354
    151  NH2       16.0010   -5.9390   32.1080 N.pl3 182  ARG182      0.1354
    152  N         21.5540    2.7220   25.7660 N.3   194  ALA194     -0.1245
    153  CA        20.6450    3.0500   26.8610 C.3   194  ALA194      0.1562
    154  C         21.2290    3.7240   28.0870 C.2   194  ALA194      0.2260
    155  O         20.5680    3.7810   29.1240 O.2   194  ALA194     -0.2867
    156  CB        19.8960    1.7840   27.2940 C.3   194  ALA194      0.0290
    157  N         19.2500    6.1450   30.2850 N.3   197  CYS197     -0.1235
    158  CA        18.0450    5.6500   30.9450 C.3   197  CYS197      0.1677
    159  C         18.3080    4.3790   31.7390 C.2   197  CYS197      0.2270
    160  O         17.4340    3.5440   31.8750 O.2   197  CYS197     -0.2867
    161  CB        16.9440    5.4030   29.9050 C.3   197  CYS197      0.0956
    162  SG        17.4070    4.2650   28.5330 S.3   197  CYS197     -0.0801
    163  N         15.7530    4.7790   34.5060 N.3   287  LYS287     -0.1231
    164  CA        14.9440    3.5780   34.3810 C.3   287  LYS287      0.1693
    165  C         13.9050    3.7750   33.2900 C.2   287  LYS287      0.2592
    166  O         13.4360    4.8870   33.0790 O.2   287  LYS287     -0.2718
    167  CB        14.3010    3.1870   35.7130 C.3   287  LYS287      0.0285
    168  CG        13.0810    3.9880   36.1000 C.3   287  LYS287      0.0035
    169  CD        12.4300    3.3760   37.3120 C.3   287  LYS287      0.0206
    170  CE        10.9700    3.7210   37.3660 C.3   287  LYS287      0.1093
    171  NZ        10.0980    2.6010   36.9990 N.3   287  LYS287     -0.1314
    172  N         13.5940    2.7070   32.5640 N.am  288  VAL288     -0.1966
    173  CA        12.6230    2.7960   31.4670 C.3   288  VAL288      0.1727
    174  C         11.2210    2.2790   31.7820 C.2   288  VAL288      0.2616
    175  O         10.2470    2.6400   31.1110 O.2   288  VAL288     -0.2715
    176  CB        13.1870    2.2170   30.1570 C.3   288  VAL288      0.0290
    177  CG1       14.6970    2.1150   30.2280 C.3   288  VAL288      0.0023
    178  CG2       12.5790    0.8860   29.8420 C.3   288  VAL288      0.0023
    179  N         11.1290    1.4020   32.7770 N.am  289  SER289     -0.1950
    180  CA         9.8540    0.8200   33.1580 C.3   289  SER289      0.1924
    181  C          8.9410    1.8630   33.7930 C.2   289  SER289      0.2314
    182  O          9.4080    2.8450   34.3600 O.2   289  SER289     -0.2863
    183  CB        10.0770   -0.3390   34.1410 C.3   289  SER289      0.2116
    184  OG        10.0660    0.1190   35.4810 O.3   289  SER289     -0.2180
    185  N          6.9790    0.9650   36.1980 N.3   291  ARG291     -0.1245
    186  CA         6.6780    0.3060   37.4750 C.3   291  ARG291      0.1563
    187  C          6.9140    1.1910   38.6980 C.2   291  ARG291      0.2260
    188  O          8.0460    1.5840   38.9730 O.2   291  ARG291     -0.2867
    189  CB         7.4710   -1.0020   37.6000 C.3   291  ARG291      0.0307
    190  CG         7.1990   -1.7900   38.8720 C.3   291  ARG291      0.0489
    191  CD         8.1910   -2.9570   39.0330 C.3   291  ARG291      0.2205
    192  NE         7.7020   -3.9310   40.0080 N.pl3 291  ARG291     -0.0865
    193  CZ         8.2470   -5.1190   40.2540 C.cat 291  ARG291      0.5346
    194  NH1        9.3230   -5.5230   39.5940 N.pl3 291  ARG291      0.1354
    195  NH2        7.7030   -5.9090   41.1720 N.pl3 291  ARG291      0.1354
    196  N         12.1340   -3.9130   45.5930 N.3   333  TYR333     -0.1241
    197  CA        11.4920   -3.3730   44.3850 C.3   333  TYR333      0.1605
    198  C         11.9350   -1.9550   44.0410 C.2   333  TYR333      0.2264
    199  O         11.5730   -1.4260   42.9940 O.2   333  TYR333     -0.2867
    200  CB         9.9650   -3.4000   44.4990 C.3   333  TYR333      0.0534
    201  CG         9.4170   -4.7240   44.9720 C.ar  333  TYR333     -0.0201
    202  CD1        9.4970   -5.8590   44.1720 C.ar  333  TYR333     -0.0009
    203  CD2        8.8020   -4.8340   46.2150 C.ar  333  TYR333     -0.0009
    204  CE1        8.9890   -7.0710   44.6070 C.ar  333  TYR333      0.0417
    205  CE2        8.2880   -6.0370   46.6540 C.ar  333  TYR333      0.0417
    206  CZ         8.4030   -7.1580   45.8550 C.ar  333  TYR333      0.1957
    207  OH         7.8860   -8.3510   46.2910 O.3   333  TYR333     -0.2866
    208  N         14.1120    0.7510   42.6510 N.3   335  ARG335     -0.1245
    209  CA        15.1740    0.9720   41.6780 C.3   335  ARG335      0.1563
    210  C         16.1720    1.9810   42.2370 C.2   335  ARG335      0.2260
    211  O         15.8320    2.7860   43.0960 O.2   335  ARG335     -0.2867
    212  CB        14.5980    1.4830   40.3510 C.3   335  ARG335      0.0307
    213  CG        13.7710    0.4540   39.5780 C.3   335  ARG335      0.0489
    214  CD        14.6310   -0.7080   39.1030 C.3   335  ARG335      0.2205
    215  NE        15.4780   -0.3540   37.9580 N.pl3 335  ARG335     -0.0865
    216  CZ        15.0410   -0.2140   36.7100 C.cat 335  ARG335      0.5346
    217  NH1       13.7480   -0.3540   36.4310 N.pl3 335  ARG335      0.1354
    218  NH2       15.8990    0.0680   35.7380 N.pl3 335  ARG335      0.1354
@<TRIPOS>BOND
     1    48    49    1
     2    49    50    1
     3    49    52    1
     4    53    52    1
     5    53    54    1
     6    50    51    2
     7    55    54    1
     8    55    56    2
     9    57    56    1
    10    62    61    2
    11    56    58    1
    12    59    60    1
    13    72    70    1
    14    95    94    2
    15    61    60    1
    16    61    66   am
    17    67    66    1
    18    67    70    1
    19    67    68    1
    20    60    63    1
    21    87    86    2
    22    70    71    1
    23    69    68    2
    24    94    93    1
    25    68    73   am
    26    92    93    1
    27    86    85    1
    28   127   126    1
    29    84    85    1
    30    93    96    1
    31    73    74    1
    32    63    64    1
    33    63    65    1
    34   152   153    1
    35    96    97    1
    36    75    74    1
    37    75    76    2
    38    99    98   ar
    39    85    88    1
    40    74    77    1
    41   124   123    1
    42   124   125    2
    43   126   123    1
    44   126   128    1
    45   123   122    1
    46    97    98    1
    47   153   156    1
    48   153   154    1
    49    98   100   ar
    50    88    89    1
    51    77    78    1
    52   154   155    2
    53    78    79    1
    54    90    89    2
    55   162   161    1
    56    89    91   am
    57    38    39    1
    58    38    37    1
    59    38    41    1
    60    42    43    1
    61    42    41    1
    62   178   176    1
    63    82    81    1
    64   161   158    1
    65    39    40    2
    66    79    80    1
    67    31    32    1
    68    31    28    1
    69    44    43    1
    70    44    45    2
    71   176   177    1
    72   176   173    1
    73    81    80    2
    74    81    83    1
    75   157   158    1
    76    32    34   ar
    77    32    33   ar
    78    34    36   ar
    79    33    35   ar
    80    30    29    2
    81    36    35   ar
    82    47    45    1
    83   158   159    1
    84    45    46    1
    85   175   174    2
    86    29    28    1
    87    28    27    1
    88   173   174    1
    89   173   172    1
    90    25    24    1
    91   159   160    2
    92   174   179   am
    93   121   120    1
    94   151   149    1
    95    22    21    2
    96   172   165   am
    97   118   119    2
    98   118   117    1
    99   179   180    1
   100    24    23    1
   101    24    26    1
   102    23    20    1
   103   146   145    1
   104   146   147    1
   105   148   149    2
   106   148   147    1
   107   120   117    1
   108   149   150    1
   109   166   165    2
   110   180   181    1
   111   180   183    1
   112    21    20    1
   113   165   164    1
   114   104   103    2
   115    19    20    1
   116   117   116    1
   117   145   142    1
   118   181   182    2
   119     5     6    1
   120     5     2    1
   121   102   103    1
   122   102   101    1
   123   183   184    1
   124   103   105   am
   125   111   109    1
   126   143   142    1
   127   143   144    2
   128   164   163    1
   129   164   167    1
   130   142   141    1
   131     6     7   ar
   132     6     8   ar
   133     2     1    1
   134     2     3    1
   135     7     9   ar
   136   105   106    1
   137     8    10   ar
   138     9    10   ar
   139   106   109    1
   140   106   107    1
   141   109   110    1
   142   167   168    1
   143   218   216    1
   144   168   169    1
   145     3     4    2
   146   185   186    1
   147   217   216    1
   148   216   215    2
   149   107   112   am
   150   107   108    2
   151   171   170    1
   152   112   113    1
   153   169   170    1
   154    16    18    1
   155    16    15    1
   156   186   189    1
   157   186   187    1
   158   189   190    1
   159   138   139    1
   160   138   135    1
   161    12    11    1
   162    12    15    1
   163    12    13    1
   164   215   214    1
   165   115   114    2
   166   139   140    1
   167   113   114    1
   168    17    15    1
   169   136   137    2
   170   136   135    1
   171   187   188    2
   172    13    14    2
   173   190   191    1
   174   135   134    1
   175   191   192    1
   176   214   213    1
   177   140   134    1
   178   213   212    1
   179   194   193    1
   180   134   131   am
   181   192   193    2
   182   193   195    1
   183   212   209    1
   184   131   132    2
   185   131   130    1
   186   209   210    1
   187   209   208    1
   188   133   130    1
   189   130   129    1
   190   210   211    2
   191   199   198    2
   192   198   197    1
   193   202   204   ar
   194   202   201   ar
   195   197   200    1
   196   197   196    1
   197   200   201    1
   198   204   206   ar
   199   201   203   ar
   200   206   207    1
   201   206   205   ar
   202   203   205   ar
