@<TRIPOS>MOLECULE
tmp/2v4lA00.pdb
 178 168 0 0 0
SMALL
GASTEIGER

@<TRIPOS>ATOM
      1  N         52.7730   12.1690   41.8500 N.3   567  LYS567     -0.1245
      2  CA        52.2090   13.4090   42.3670 C.3   567  LYS567      0.1561
      3  C         50.6830   13.3950   42.4190 C.2   567  LYS567      0.2260
      4  O         50.0280   12.9740   41.4850 O.2   567  LYS567     -0.2867
      5  CB        52.6820   14.6250   41.5390 C.3   567  LYS567      0.0271
      6  CG        52.8130   14.4050   40.0380 C.3   567  LYS567      0.0035
      7  CD        52.3870   15.6280   39.2070 C.3   567  LYS567      0.0206
      8  CE        52.5630   15.3560   37.6900 C.3   567  LYS567      0.1093
      9  NZ        51.8470   16.4180   36.8770 N.3   567  LYS567     -0.1314
     10  N         47.4700   15.3540   41.7850 N.3   569  MET569     -0.1245
     11  CA        47.3260   16.1680   40.5850 C.3   569  MET569      0.1570
     12  C         46.4590   17.3470   40.9020 C.2   569  MET569      0.2261
     13  O         45.6930   17.3160   41.8600 O.2   569  MET569     -0.2867
     14  CB        46.6720   15.3660   39.4520 C.3   569  MET569      0.0387
     15  CG        47.6290   14.7870   38.4580 C.3   569  MET569      0.0595
     16  SD        46.7530   13.8450   37.2210 S.3   569  MET569     -0.1393
     17  CE        46.7320   12.2990   37.9980 C.3   569  MET569      0.0692
     18  N         43.3070   13.2190   41.6030 N.3   575  PRO575     -0.2116
     19  CA        43.8530   12.0350   40.9600 C.3   575  PRO575      0.1372
     20  C         45.3280   11.8650   41.2450 C.2   575  PRO575      0.2244
     21  O         46.0470   12.8440   41.3170 O.2   575  PRO575     -0.2868
     22  CB        43.6410   12.3310   39.4700 C.3   575  PRO575      0.0268
     23  CG        42.6990   13.4630   39.4190 C.3   575  PRO575      0.0207
     24  CD        42.9920   14.2600   40.6080 C.3   575  PRO575      0.0892
     25  N         48.7290   10.9270   39.7250 N.3   577  TRP577     -0.1241
     26  CA        49.6210   10.6420   38.5920 C.3   577  TRP577      0.1605
     27  C         50.7590    9.8050   39.1110 C.2   577  TRP577      0.2264
     28  O         51.4700   10.2130   40.0010 O.2   577  TRP577     -0.2867
     29  CB        50.1540   11.9310   37.9900 C.3   577  TRP577      0.0550
     30  CG        51.1880   11.8090   36.8960 C.ar  577  TRP577      0.0003
     31  CD1       52.4720   11.3560   37.0240 C.ar  577  TRP577      0.0946
     32  CD2       51.0630   12.2510   35.5290 C.ar  577  TRP577      0.0152
     33  NE1       53.1400   11.4620   35.8150 N.ar  577  TRP577     -0.2442
     34  CE2       52.2970   12.0050   34.8760 C.ar  577  TRP577      0.0810
     35  CE3       50.0160   12.8030   34.7730 C.ar  577  TRP577      0.0012
     36  CZ2       52.5230   12.3220   33.5280 C.ar  577  TRP577      0.0191
     37  CZ3       50.2360   13.1120   33.4230 C.ar  577  TRP577      0.0001
     38  CH2       51.4820   12.8660   32.8120 C.ar  577  TRP577      0.0015
     39  N         47.2290    7.2290   35.6160 N.3   596  ILE596     -0.1245
     40  CA        46.4180    8.0990   36.4580 C.3   596  ILE596      0.1561
     41  C         45.3480    7.2960   37.1840 C.2   596  ILE596      0.2260
     42  O         44.5820    6.5740   36.5600 O.2   596  ILE596     -0.2867
     43  CB        45.7400    9.1580   35.6320 C.3   596  ILE596      0.0252
     44  CG1       46.7490   10.2320   35.2130 C.3   596  ILE596      0.0019
     45  CG2       44.6100    9.7670   36.4220 C.3   596  ILE596      0.0019
     46  CD1       46.2360   11.1820   34.1310 C.3   596  ILE596      0.0001
     47  N         41.9780    7.7310   39.5620 N.3   598  LYS598     -0.1245
     48  CA        41.0520    8.7690   40.0360 C.3   598  LYS598      0.1561
     49  C         39.6060    8.4040   40.3740 C.2   598  LYS598      0.2260
     50  O         38.9740    7.5860   39.7070 O.2   598  LYS598     -0.2867
     51  CB        41.1090    9.9900   39.1160 C.3   598  LYS598      0.0271
     52  CG        40.1690   10.0390   37.9720 C.3   598  LYS598      0.0035
     53  CD        39.1320   11.1060   38.1440 C.3   598  LYS598      0.0206
     54  CE        38.8540   11.8420   36.8280 C.3   598  LYS598      0.1093
     55  NZ        38.4460   10.9830   35.6950 N.3   598  LYS598     -0.1314
     56  N         33.5900    6.7860   29.7470 N.3   606  ASP606     -0.1239
     57  CA        34.9090    6.9190   29.1290 C.3   606  ASP606      0.1674
     58  C         35.3150    5.6560   28.3590 C.2   606  ASP606      0.2266
     59  O         35.6770    5.7500   27.1910 O.2   606  ASP606     -0.2867
     60  CB        35.9860    7.2140   30.1740 C.3   606  ASP606      0.1410
     61  CG        36.1160    8.6750   30.4990 C.2   606  ASP606      0.3668
     62  OD1       35.3140    9.1620   31.3320 O.co2 606  ASP606     -0.2456
     63  OD2       37.0370    9.4040   30.0240 O.co2 606  ASP606     -0.2456
     64  N         43.4080    6.2760   24.3380 N.3   632  TYR632     -0.1241
     65  CA        44.2480    5.8570   25.4530 C.3   632  TYR632      0.1605
     66  C         43.5560    4.8460   26.3710 C.2   632  TYR632      0.2264
     67  O         42.3450    4.8040   26.4520 O.2   632  TYR632     -0.2867
     68  CB        44.6600    7.0940   26.2600 C.3   632  TYR632      0.0534
     69  CG        43.5040    7.9130   26.7840 C.ar  632  TYR632     -0.0201
     70  CD1       42.8500    7.5590   27.9420 C.ar  632  TYR632     -0.0009
     71  CD2       43.0590    9.0230   26.0900 C.ar  632  TYR632     -0.0009
     72  CE1       41.7900    8.2950   28.3850 C.ar  632  TYR632      0.0417
     73  CE2       42.0160    9.7460   26.5120 C.ar  632  TYR632      0.0417
     74  CZ        41.3900    9.4070   27.6650 C.ar  632  TYR632      0.1957
     75  OH        40.3390   10.1880   28.0880 O.3   632  TYR632     -0.2866
     76  N         43.7270    5.2600   34.1860 N.3   644  ILE644     -0.1231
     77  CA        43.8550    5.8640   32.8710 C.3   644  ILE644      0.1692
     78  C         45.3150    5.8940   32.4350 C.2   644  ILE644      0.2592
     79  O         46.1480    6.3870   33.1430 O.2   644  ILE644     -0.2718
     80  CB        43.3110    7.2900   32.8940 C.3   644  ILE644      0.0266
     81  CG1       41.8520    7.3260   33.3740 C.3   644  ILE644      0.0019
     82  CG2       43.4440    7.9110   31.5240 C.3   644  ILE644      0.0020
     83  CD1       41.4320    8.6300   34.0350 C.3   644  ILE644      0.0001
     84  N         45.6250    5.3680   31.2640 N.am  645  GLU645     -0.1966
     85  CA        46.9810    5.4440   30.7080 C.3   645  GLU645      0.1733
     86  C         47.4380    6.8870   30.5800 C.2   645  GLU645      0.2616
     87  O         46.7270    7.6870   30.0110 O.2   645  GLU645     -0.2715
     88  CB        46.9990    4.8000   29.3300 C.3   645  GLU645      0.0429
     89  CG        48.3520    4.7870   28.6180 C.3   645  GLU645      0.1163
     90  CD        48.2470    4.4010   27.1300 C.2   645  GLU645      0.3649
     91  OE1       49.2080    4.6460   26.4120 O.co2 645  GLU645     -0.2457
     92  OE2       47.2220    3.9150   26.6430 O.co2 645  GLU645     -0.2457
     93  N         48.6010    7.2020   31.1550 N.am  646  ILE646     -0.1963
     94  CA        49.3230    8.4420   30.8900 C.3   646  ILE646      0.1727
     95  C         50.0340    8.4070   29.5420 C.2   646  ILE646      0.2616
     96  O         50.8950    7.5700   29.3030 O.2   646  ILE646     -0.2715
     97  CB        50.3910    8.7370   32.0090 C.3   646  ILE646      0.0290
     98  CG1       49.7050    9.2710   33.2810 C.3   646  ILE646      0.0022
     99  CG2       51.4490    9.7660   31.5240 C.3   646  ILE646      0.0023
    100  CD1       50.5800    9.2540   34.4760 C.3   646  ILE646      0.0001
    101  N         49.6720    9.3400   28.6770 N.am  647  VAL647     -0.1977
    102  CA        50.3280    9.5140   27.3920 C.3   647  VAL647      0.1596
    103  C         51.5390   10.4010   27.5320 C.2   647  VAL647      0.2287
    104  O         51.4360   11.4790   28.0860 O.2   647  VAL647     -0.2864
    105  CB        49.3970   10.2080   26.4020 C.3   647  VAL647      0.0276
    106  CG1       50.1930   10.7630   25.1780 C.3   647  VAL647      0.0022
    107  CG2       48.2980    9.2760   25.9980 C.3   647  VAL647      0.0022
    108  N         52.8630   14.9560   26.4520 N.3   650  ALA650     -0.1231
    109  CA        51.5830   15.5530   26.1000 C.3   650  ALA650      0.1694
    110  C         51.2160   16.6530   27.0690 C.2   650  ALA650      0.2593
    111  O         51.4700   16.5690   28.2680 O.2   650  ALA650     -0.2718
    112  CB        50.4870   14.4900   26.0840 C.3   650  ALA650      0.0304
    113  N         50.6310   17.7040   26.5410 N.am  651  THR651     -0.1939
    114  CA        50.1250   18.7500   27.3820 C.3   651  THR651      0.2028
    115  C         48.8310   19.2130   26.8160 C.2   651  THR651      0.2642
    116  O         48.5640   19.1220   25.6180 O.2   651  THR651     -0.2714
    117  CB        51.0940   19.9790   27.4980 C.3   651  THR651      0.1808
    118  OG1       51.1070   20.7080   26.2680 O.3   651  THR651     -0.2208
    119  CG2       52.5330   19.5540   27.6830 C.3   651  THR651      0.0379
    120  N         48.0320   19.7390   27.7150 N.am  652  THR652     -0.1950
    121  CA        46.7490   20.2830   27.3800 C.3   652  THR652      0.1897
    122  C         46.9100   21.5280   26.5110 C.2   652  THR652      0.2313
    123  O         47.9240   22.2120   26.5740 O.2   652  THR652     -0.2863
    124  CB        46.0370   20.5540   28.7060 C.3   652  THR652      0.1794
    125  OG1       45.4440   19.3190   29.1810 O.3   652  THR652     -0.2208
    126  CG2       44.8920   21.4970   28.5400 C.3   652  THR652      0.0378
    127  N         46.9460   24.5790   28.7580 N.3   655  LYS655     -0.1245
    128  CA        48.2330   24.8340   29.4020 C.3   655  LYS655      0.1561
    129  C         49.1380   25.6090   28.4520 C.2   655  LYS655      0.2260
    130  O         49.7210   26.6130   28.8500 O.2   655  LYS655     -0.2867
    131  CB        48.9190   23.5330   29.8430 C.3   655  LYS655      0.0271
    132  CG        49.3250   23.4710   31.3130 C.3   655  LYS655      0.0035
    133  CD        48.2110   22.8690   32.2280 C.3   655  LYS655      0.0206
    134  CE        47.9420   23.7800   33.4550 C.3   655  LYS655      0.1093
    135  NZ        47.4570   23.0480   34.6680 N.3   655  LYS655     -0.1314
    136  N         40.7920   22.6090   28.2720 N.3   715  ASP715     -0.1239
    137  CA        41.5270   21.8940   29.3020 C.3   715  ASP715      0.1674
    138  C         41.5290   20.3920   28.9990 C.2   715  ASP715      0.2266
    139  O         42.4530   19.6700   29.4030 O.2   715  ASP715     -0.2867
    140  CB        40.9180   22.1770   30.6830 C.3   715  ASP715      0.1410
    141  CG        41.9620   22.1850   31.8060 C.2   715  ASP715      0.3668
    142  OD1       43.1280   21.7680   31.5490 O.co2 715  ASP715     -0.2456
    143  OD2       41.6940   22.5860   32.9850 O.co2 715  ASP715     -0.2456
    144  N         44.2550   17.7210   24.3200 N.3   718  MET718     -0.1245
    145  CA        45.6940   17.6260   24.4890 C.3   718  MET718      0.1570
    146  C         46.3850   17.5000   23.1200 C.2   718  MET718      0.2261
    147  O         45.7350   17.2960   22.1060 O.2   718  MET718     -0.2867
    148  CB        46.0550   16.4320   25.3820 C.3   718  MET718      0.0387
    149  CG        45.4480   16.4490   26.7980 C.3   718  MET718      0.0595
    150  SD        46.2760   15.2580   27.9360 S.3   718  MET718     -0.1393
    151  CE        47.7590   16.0980   28.2490 C.3   718  MET718      0.0692
    152  N         44.5620   14.9010   20.8240 N.3   726  PHE726     -0.1241
    153  CA        43.5800   13.9340   21.2910 C.3   726  PHE726      0.1605
    154  C         42.6500   14.4960   22.3690 C.2   726  PHE726      0.2264
    155  O         43.1050   15.2460   23.2320 O.2   726  PHE726     -0.2867
    156  CB        44.2510   12.6300   21.7210 C.3   726  PHE726      0.0534
    157  CG        45.2010   12.7680   22.8640 C.ar  726  PHE726     -0.0203
    158  CD1       44.9060   12.2150   24.0850 C.ar  726  PHE726     -0.0042
    159  CD2       46.4210   13.3810   22.7030 C.ar  726  PHE726     -0.0042
    160  CE1       45.7950   12.3190   25.1440 C.ar  726  PHE726     -0.0003
    161  CE2       47.3110   13.4940   23.7680 C.ar  726  PHE726     -0.0003
    162  CZ        46.9890   12.9590   24.9940 C.ar  726  PHE726     -0.0000
    163  N         40.3400   14.2580   25.7370 N.3   728  ILE728     -0.1231
    164  CA        40.3460   13.4820   26.9660 C.3   728  ILE728      0.1692
    165  C         39.0370   13.6890   27.7300 C.2   728  ILE728      0.2592
    166  O         38.1560   14.3970   27.2670 O.2   728  ILE728     -0.2718
    167  CB        41.6000   13.7720   27.8470 C.3   728  ILE728      0.0266
    168  CG1       41.7060   15.2540   28.2820 C.3   728  ILE728      0.0019
    169  CG2       42.8470   13.3420   27.1240 C.3   728  ILE728      0.0020
    170  CD1       42.4280   15.4890   29.6270 C.3   728  ILE728      0.0001
    171  N         38.9160   12.9740   28.8450 N.am  729  ASP729     -0.1974
    172  CA        37.8550   13.1160   29.8600 C.3   729  ASP729      0.1709
    173  C         36.3890   13.1520   29.3990 C.2   729  ASP729      0.2293
    174  O         35.6630   14.0650   29.6620 O.2   729  ASP729     -0.2864
    175  CB        38.1820   14.2990   30.8010 C.3   729  ASP729      0.1436
    176  CG        37.7350   14.0340   32.2250 C.2   729  ASP729      0.3671
    177  OD1       38.1240   14.7880   33.1590 O.co2 729  ASP729     -0.2456
    178  OD2       36.9940   13.0550   32.5010 O.co2 729  ASP729     -0.2456
@<TRIPOS>BOND
     1   152   153    1
     2   153   156    1
     3   153   154    1
     4   156   157    1
     5   147   146    2
     6   154   155    2
     7   159   157   ar
     8   159   161   ar
     9   157   158   ar
    10   146   145    1
    11   161   162   ar
    12   158   160   ar
    13   144   145    1
    14    64    65    1
    15   145   148    1
    16   162   160   ar
    17   106   105    1
    18   148   149    1
    19    65    68    1
    20    65    66    1
    21   116   115    2
    22   163   164    1
    23   107   105    1
    24   112   109    1
    25    71    73   ar
    26    71    69   ar
    27   109   108    1
    28   109   110    1
    29    68    69    1
    30   118   117    1
    31    66    67    2
    32   105   102    1
    33    91    90   ar
    34   122   123    2
    35   122   121    1
    36    73    74   ar
    37   113   110   am
    38   113   114    1
    39    92    90   ar
    40    69    70   ar
    41   149   150    1
    42   115   114    1
    43   115   120   am
    44   164   165    1
    45   164   167    1
    46   110   111    2
    47   169   167    1
    48    90    89    1
    49    59    58    2
    50   166   165    2
    51   121   120    1
    52   121   124    1
    53   114   117    1
    54   102   103    1
    55   102   101    1
    56   117   119    1
    57   103   104    2
    58    74    75    1
    59    74    72   ar
    60   165   171   am
    61   167   168    1
    62   150   151    1
    63    70    72   ar
    64   136   137    1
    65   168   170    1
    66    58    57    1
    67   129   130    2
    68   129   128    1
    69   126   124    1
    70    89    88    1
    71   101    95   am
    72   124   125    1
    73   127   128    1
    74   171   172    1
    75   138   137    1
    76   138   139    2
    77    57    56    1
    78    57    60    1
    79   137   140    1
    80    96    95    2
    81    88    85    1
    82   173   174    2
    83   173   172    1
    84   128   131    1
    85    95    94    1
    86   131   132    1
    87   172   175    1
    88    87    86    2
    89    63    61   ar
    90    60    61    1
    91    61    62   ar
    92    86    85    1
    93    86    93   am
    94   140   141    1
    95    85    84    1
    96   175   176    1
    97    94    93    1
    98    94    97    1
    99    84    78   am
   100   132   133    1
   101    99    97    1
   102    82    80    1
   103   142   141   ar
   104   141   143   ar
   105    97    98    1
   106   176   178   ar
   107   176   177   ar
   108   133   134    1
   109    78    77    1
   110    78    79    2
   111    38    37   ar
   112    38    36   ar
   113    77    80    1
   114    77    76    1
   115    80    81    1
   116    98   100    1
   117    81    83    1
   118    37    35   ar
   119   134   135    1
   120    36    34   ar
   121    46    44    1
   122    35    32   ar
   123    34    32   ar
   124    34    33   ar
   125    44    43    1
   126    32    30   ar
   127    39    40    1
   128    43    45    1
   129    43    40    1
   130    55    54    1
   131    33    31   ar
   132    40    41    1
   133    42    41    2
   134    54    53    1
   135     9     8    1
   136    30    31   ar
   137    30    29    1
   138    16    17    1
   139    16    15    1
   140     8     7    1
   141    52    53    1
   142    52    51    1
   143    29    26    1
   144    15    14    1
   145    26    27    1
   146    26    25    1
   147    27    28    2
   148    51    48    1
   149     7     6    1
   150    23    22    1
   151    23    24    1
   152    14    11    1
   153    22    19    1
   154    47    48    1
   155    50    49    2
   156    48    49    1
   157     6     5    1
   158    11    12    1
   159    11    10    1
   160    24    18    1
   161    12    13    2
   162    19    20    1
   163    19    18    1
   164    20    21    2
   165     4     3    2
   166     5     2    1
   167     1     2    1
   168     2     3    1
