@<TRIPOS>MOLECULE
tmp/2v4mB00.pdb
 110 103 0 0 0
SMALL
GASTEIGER

@<TRIPOS>ATOM
      1  N        -32.7650  -16.4260   -4.2960 N.3    56  CYS56      -0.1221
      2  CA       -31.8600  -17.2730   -5.0660 C.3    56  CYS56       0.1808
      3  C        -30.4360  -17.0940   -4.5750 C.2    56  CYS56       0.2602
      4  O        -30.0970  -16.0670   -3.9910 O.2    56  CYS56      -0.2717
      5  CB       -31.9050  -16.9210   -6.5470 C.3    56  CYS56       0.0970
      6  SG       -33.5280  -16.9220   -7.3040 S.3    56  CYS56      -0.0800
      7  N        -29.6060  -18.1030   -4.8150 N.am   57  GLY57      -0.1942
      8  CA       -28.1690  -18.0030   -4.5660 C.3    57  GLY57       0.2014
      9  C        -27.8130  -17.5040   -3.1810 C.2    57  GLY57       0.2640
     10  O        -28.4060  -17.9320   -2.1960 O.2    57  GLY57      -0.2714
     11  N        -26.8520  -16.5850   -3.1120 N.am   58  THR58      -0.1936
     12  CA       -26.3170  -16.0860   -1.8350 C.3    58  THR58       0.2028
     13  C        -27.3400  -15.3350   -0.9740 C.2    58  THR58       0.2642
     14  O        -27.2090  -15.2860    0.2490 O.2    58  THR58      -0.2714
     15  CB       -25.0620  -15.1870   -2.0790 C.3    58  THR58       0.1808
     16  OG1      -23.9820  -16.0120   -2.5460 O.3    58  THR58      -0.2208
     17  CG2      -24.6390  -14.4580   -0.8080 C.3    58  THR58       0.0379
     18  N        -28.3460  -14.7420   -1.6110 N.am   59  SER59      -0.1949
     19  CA       -29.4470  -14.1180   -0.8800 C.3    59  SER59       0.1924
     20  C        -30.2870  -15.1780   -0.1590 C.2    59  SER59       0.2314
     21  O        -30.8820  -14.8960    0.8800 O.2    59  SER59      -0.2863
     22  CB       -30.3210  -13.2790   -1.8130 C.3    59  SER59       0.2116
     23  OG       -29.6010  -12.1590   -2.3020 O.3    59  SER59      -0.2180
     24  N        -35.5600  -11.6460   -0.5190 N.3   102  LEU102     -0.1231
     25  CA       -34.1890  -11.1720   -0.4000 C.3   102  LEU102      0.1693
     26  C        -33.5470  -11.1610   -1.7950 C.2   102  LEU102      0.2593
     27  O        -33.3650  -12.2160   -2.4120 O.2   102  LEU102     -0.2718
     28  CB       -33.3910  -12.0770    0.5540 C.3   102  LEU102      0.0284
     29  CG       -34.1240  -12.7170    1.7470 C.3   102  LEU102      0.0019
     30  CD1      -33.1710  -13.5550    2.5690 C.3   102  LEU102      0.0001
     31  CD2      -34.8070  -11.6710    2.6180 C.3   102  LEU102      0.0001
     32  N        -33.2270   -9.9660   -2.2960 N.am  103  SER103     -0.1938
     33  CA       -32.5530   -9.8130   -3.5950 C.3   103  SER103      0.2055
     34  C        -31.7500   -8.5120   -3.6630 C.2   103  SER103      0.2643
     35  O        -32.3260   -7.4230   -3.6820 O.2   103  SER103     -0.2714
     36  CB       -33.5720   -9.8240   -4.7270 C.3   103  SER103      0.2130
     37  OG       -32.9430   -9.6730   -5.9910 O.3   103  SER103     -0.2179
     38  N        -30.4270   -8.6330   -3.7160 N.am  104  GLN104     -0.1963
     39  CA       -29.5340   -7.4720   -3.8150 C.3   104  GLN104      0.1733
     40  C        -29.9590   -6.5340   -4.9500 C.2   104  GLN104      0.2617
     41  O        -30.1830   -5.3490   -4.7280 O.2   104  GLN104     -0.2715
     42  CB       -28.0880   -7.9370   -4.0130 C.3   104  GLN104      0.0408
     43  CG       -27.0210   -6.8780   -3.7060 C.3   104  GLN104      0.0908
     44  CD       -26.8040   -5.8700   -4.8300 C.2   104  GLN104      0.2608
     45  OE1      -26.4860   -4.7140   -4.5710 O.2   104  GLN104     -0.2717
     46  NE2      -26.9690   -6.3050   -6.0740 N.am  104  GLN104     -0.0878
     47  N        -30.0970   -7.0860   -6.1490 N.am  105  SER105     -0.1950
     48  CA       -30.4670   -6.3120   -7.3360 C.3   105  SER105      0.1924
     49  C        -31.9320   -5.8830   -7.3490 C.2   105  SER105      0.2314
     50  O        -32.2720   -4.8260   -7.8950 O.2   105  SER105     -0.2863
     51  CB       -30.2010   -7.1490   -8.5860 C.3   105  SER105      0.2116
     52  OG       -30.9100   -8.3780   -8.5160 O.3   105  SER105     -0.2180
     53  N        -33.8710  -10.1970   -9.8480 N.3   108  THR108     -0.1218
     54  CA       -33.7470  -11.6210  -10.1330 C.3   108  THR108      0.1862
     55  C        -35.1250  -12.1990  -10.4480 C.2   108  THR108      0.2287
     56  O        -36.0570  -12.0420   -9.6570 O.2   108  THR108     -0.2866
     57  CB       -33.1350  -12.3500   -8.9500 C.3   108  THR108      0.1770
     58  OG1      -32.0060  -11.6030   -8.4850 O.3   108  THR108     -0.2211
     59  CG2      -32.7100  -13.7550   -9.3470 C.3   108  THR108      0.0375
     60  N        -37.1450  -14.8190   -7.9690 N.3   111  THR111     -0.1218
     61  CA       -37.5350  -14.1280   -6.7380 C.3   111  THR111      0.1862
     62  C        -38.6710  -13.1290   -6.9580 C.2   111  THR111      0.2287
     63  O        -39.5020  -12.9280   -6.0660 O.2   111  THR111     -0.2866
     64  CB       -36.3290  -13.4030   -6.1250 C.3   111  THR111      0.1770
     65  OG1      -35.2350  -14.3140   -6.0470 O.3   111  THR111     -0.2211
     66  CG2      -36.6400  -12.8790   -4.7310 C.3   111  THR111      0.0375
     67  N        -19.0140   -9.6680   -9.1710 N.3   154  VAL154     -0.1231
     68  CA       -19.8720  -10.8000   -9.5620 C.3   154  VAL154      0.1692
     69  C        -20.3020  -11.6480   -8.3550 C.2   154  VAL154      0.2592
     70  O        -21.3730  -12.2580   -8.3740 O.2   154  VAL154     -0.2718
     71  CB       -19.1700  -11.7050  -10.6240 C.3   154  VAL154      0.0266
     72  CG1      -19.8330  -13.0820  -10.7150 C.3   154  VAL154      0.0020
     73  CG2      -19.1720  -11.0250  -11.9880 C.3   154  VAL154      0.0020
     74  N        -19.4650  -11.6950   -7.3190 N.am  155  ALA155     -0.1966
     75  CA       -19.7780  -12.4380   -6.1070 C.3   155  ALA155      0.1728
     76  C        -20.2560  -11.4840   -5.0150 C.2   155  ALA155      0.2616
     77  O        -19.6080  -10.4740   -4.7420 O.2   155  ALA155     -0.2715
     78  CB       -18.5590  -13.2250   -5.6340 C.3   155  ALA155      0.0334
     79  N        -21.3960  -11.8020   -4.4030 N.am  156  SER156     -0.1950
     80  CA       -21.9160  -11.0240   -3.2780 C.3   156  SER156      0.1924
     81  C        -21.0460  -11.2250   -2.0410 C.2   156  SER156      0.2314
     82  O        -20.6240  -12.3410   -1.7440 O.2   156  SER156     -0.2863
     83  CB       -23.3630  -11.4200   -2.9720 C.3   156  SER156      0.2116
     84  OG       -23.8400  -10.7490   -1.8180 O.3   156  SER156     -0.2180
     85  N        -20.0230  -21.6390   -2.0990 N.3   239  LEU239     -0.1231
     86  CA       -20.5400  -20.9940   -3.3060 C.3   239  LEU239      0.1693
     87  C        -19.5670  -19.9630   -3.8920 C.2   239  LEU239      0.2591
     88  O        -19.5240  -19.7860   -5.1110 O.2   239  LEU239     -0.2718
     89  CB       -21.8890  -20.3290   -3.0330 C.3   239  LEU239      0.0284
     90  CG       -22.5510  -19.6150   -4.2160 C.3   239  LEU239      0.0019
     91  CD1      -22.5330  -20.4760   -5.4870 C.3   239  LEU239      0.0001
     92  CD2      -23.9750  -19.2260   -3.8540 C.3   239  LEU239      0.0001
     93  N        -18.8210  -19.2630   -3.0380 N.am  240  LYS240     -0.1980
     94  CA       -17.8220  -18.2960   -3.5270 C.3   240  LYS240      0.1596
     95  C        -16.6890  -19.0470   -4.1970 C.2   240  LYS240      0.2287
     96  O        -16.3060  -18.7400   -5.3170 O.2   240  LYS240     -0.2864
     97  CB       -17.2500  -17.4370   -2.3910 C.3   240  LYS240      0.0298
     98  CG       -18.2510  -16.5210   -1.7230 C.3   240  LYS240      0.0038
     99  CD       -18.8510  -15.5090   -2.6890 C.3   240  LYS240      0.0206
    100  CE       -20.3580  -15.5450   -2.6090 C.3   240  LYS240      0.1093
    101  NZ       -21.0000  -14.4670   -3.3710 N.3   240  LYS240     -0.1314
    102  N        -17.6970  -20.1940   -7.4930 N.3   243  GLU243     -0.1245
    103  CA       -18.0100  -19.1590   -8.4770 C.3   243  GLU243      0.1567
    104  C        -16.7980  -18.4370   -9.0740 C.2   243  GLU243      0.2260
    105  O        -16.7980  -18.1270  -10.2710 O.2   243  GLU243     -0.2867
    106  CB       -18.9400  -18.1180   -7.8490 C.3   243  GLU243      0.0388
    107  CG       -19.5420  -17.1300   -8.8370 C.3   243  GLU243      0.1160
    108  CD       -20.4310  -16.1090   -8.1580 C.2   243  GLU243      0.3649
    109  OE1      -20.2960  -15.9170   -6.9260 O.co2 243  GLU243     -0.2457
    110  OE2      -21.2640  -15.4940   -8.8560 O.co2 243  GLU243     -0.2457
@<TRIPOS>BOND
     1    73    71    1
     2    72    71    1
     3    71    68    1
     4    55    54    1
     5    55    56    2
     6   105   104    2
     7    54    53    1
     8    54    57    1
     9    68    67    1
    10    68    69    1
    11    59    57    1
    12   104   103    1
    13    57    58    1
    14   110   108   ar
    15   107   108    1
    16   107   106    1
    17    51    52    1
    18    51    48    1
    19   103   106    1
    20   103   102    1
    21    70    69    2
    22    69    74   am
    23   108   109   ar
    24    60    61    1
    25    50    49    2
    26    49    48    1
    27    48    47    1
    28    74    75    1
    29     6     5    1
    30    62    61    1
    31    62    63    2
    32    61    64    1
    33     5     2    1
    34    47    40   am
    35    64    65    1
    36    64    66    1
    37    75    78    1
    38    75    76    1
    39    46    44   am
    40    37    36    1
    41    91    90    1
    42    96    95    2
    43    88    87    2
    44     2     3    1
    45     2     1    1
    46    76    77    2
    47    76    79   am
    48    40    41    2
    49    40    39    1
    50    44    45    2
    51    44    43    1
    52     7     3   am
    53     7     8    1
    54    36    33    1
    55     3     4    2
    56     8     9    1
    57    79    80    1
    58    90    92    1
    59    90    89    1
    60    95    94    1
    61    42    39    1
    62    42    43    1
    63    87    86    1
    64    87    93   am
    65    39    38    1
    66    38    34   am
    67    35    34    2
    68    34    33    1
    69    33    32    1
    70    94    93    1
    71    94    97    1
    72   101   100    1
    73    86    89    1
    74    86    85    1
    75    80    83    1
    76    80    81    1
    77     9    11   am
    78     9    10    2
    79    11    12    1
    80    83    84    1
    81    99   100    1
    82    99    98    1
    83    16    15    1
    84    27    26    2
    85    97    98    1
    86    23    22    1
    87    32    26   am
    88    15    12    1
    89    15    17    1
    90    81    82    2
    91    12    13    1
    92    22    19    1
    93    26    25    1
    94    18    13   am
    95    18    19    1
    96    13    14    2
    97    19    20    1
    98    24    25    1
    99    25    28    1
   100    20    21    2
   101    28    29    1
   102    29    30    1
   103    29    31    1
