@<TRIPOS>MOLECULE
tmp/2v4yF02.pdb
 95 90 0 0 0
SMALL
GASTEIGER

@<TRIPOS>ATOM
      1  N        -40.3720    4.1040   37.1780 N.3    11  LYS11      -0.1245
      2  CA       -39.1040    3.6970   37.7810 C.3    11  LYS11       0.1561
      3  C        -39.2790    2.4850   38.6890 C.2    11  LYS11       0.2260
      4  O        -39.9560    2.5560   39.7120 O.2    11  LYS11      -0.2867
      5  CB       -38.5010    4.8520   38.5810 C.3    11  LYS11       0.0271
      6  CG       -37.1580    4.5360   39.2410 C.3    11  LYS11       0.0035
      7  CD       -37.3300    3.9500   40.6270 C.3    11  LYS11       0.0206
      8  CE       -35.9850    3.5540   41.2280 C.3    11  LYS11       0.1093
      9  NZ       -36.1120    3.0860   42.6450 N.3    11  LYS11      -0.1314
     10  N        -37.5270   -0.6710   41.0280 N.3    13  SER13      -0.1202
     11  CA       -36.3470   -1.1110   41.7380 C.3    13  SER13       0.2020
     12  C        -35.9770   -2.4660   41.1450 C.2    13  SER13       0.2619
     13  O        -36.8570   -3.2250   40.7550 O.2    13  SER13      -0.2717
     14  CB       -36.6550   -1.2260   43.2290 C.3    13  SER13       0.2103
     15  OG       -35.5630   -1.7780   43.9420 O.3    13  SER13      -0.2182
     16  N        -34.6850   -2.7600   41.0430 N.am   14  GLY14      -0.1942
     17  CA       -34.2620   -4.0590   40.5570 C.3    14  GLY14       0.2014
     18  C        -34.9540   -5.1840   41.3100 C.2    14  GLY14       0.2638
     19  O        -35.3870   -6.1680   40.7040 O.2    14  GLY14      -0.2714
     20  N        -35.0680   -5.0320   42.6310 N.am   15  GLU15      -0.1977
     21  CA       -35.7060   -6.0370   43.4820 C.3    15  GLU15       0.1602
     22  C        -37.1310   -6.3490   43.0290 C.2    15  GLU15       0.2287
     23  O        -37.6420   -7.4390   43.2570 O.2    15  GLU15      -0.2864
     24  CB       -35.7120   -5.5870   44.9480 C.3    15  GLU15       0.0415
     25  CG       -34.3660   -5.7160   45.6650 C.3    15  GLU15       0.1163
     26  CD       -33.5220   -4.4480   45.5840 C.2    15  GLU15       0.3649
     27  OE1      -32.7070   -4.2130   46.5100 O.co2  15  GLU15      -0.2457
     28  OE2      -33.6770   -3.6840   44.6010 O.co2  15  GLU15      -0.2457
     29  N        -33.5850   -0.6540   38.1420 N.3    52  GLY52      -0.1210
     30  CA       -32.3630   -0.7400   38.9290 C.3    52  GLY52       0.1956
     31  C        -31.7260   -2.1100   38.7910 C.2    52  GLY52       0.2612
     32  O        -32.1820   -2.9360   37.9980 O.2    52  GLY52      -0.2717
     33  N        -30.6760   -2.3650   39.5640 N.am   53  GLY53      -0.1942
     34  CA       -29.9610   -3.6230   39.4500 C.3    53  GLY53       0.2014
     35  C        -29.7780   -4.3770   40.7550 C.2    53  GLY53       0.2639
     36  O        -28.9740   -5.3090   40.8270 O.2    53  GLY53      -0.2714
     37  N        -30.5320   -3.9860   41.7810 N.am   54  GLY54      -0.1954
     38  CA       -30.3790   -4.5540   43.1090 C.3    54  GLY54       0.1869
     39  C        -30.6080   -6.0540   43.2040 C.2    54  GLY54       0.2309
     40  O        -30.0170   -6.7280   44.0480 O.2    54  GLY54      -0.2863
     41  N        -27.2590   -7.4770   41.6050 N.3    57  PHE57      -0.1241
     42  CA       -26.0110   -7.1010   42.2480 C.3    57  PHE57       0.1605
     43  C        -26.2390   -6.4170   43.5840 C.2    57  PHE57       0.2264
     44  O        -26.7620   -5.3050   43.6460 O.2    57  PHE57      -0.2867
     45  CB       -25.1810   -6.1990   41.3450 C.3    57  PHE57       0.0534
     46  CG       -23.9280   -5.6980   41.9940 C.ar   57  PHE57      -0.0203
     47  CD1      -22.8490   -6.5510   42.1860 C.ar   57  PHE57      -0.0042
     48  CD2      -23.8290   -4.3780   42.4240 C.ar   57  PHE57      -0.0042
     49  CE1      -21.6920   -6.0980   42.7830 C.ar   57  PHE57      -0.0003
     50  CE2      -22.6720   -3.9160   43.0210 C.ar   57  PHE57      -0.0003
     51  CZ       -21.6000   -4.7780   43.2000 C.ar   57  PHE57      -0.0000
     52  N        -23.2950   -2.6350   39.1490 N.3    76  GLY76      -0.1225
     53  CA       -24.7220   -2.4010   39.2560 C.3    76  GLY76       0.1811
     54  C        -25.2800   -1.8640   37.9540 C.2    76  GLY76       0.2280
     55  O        -26.3740   -2.2280   37.5290 O.2    76  GLY76      -0.2866
     56  N        -28.3610   -3.4040   35.7610 N.3    80  THR80      -0.1218
     57  CA       -29.5790   -2.7600   35.2830 C.3    80  THR80       0.1862
     58  C        -29.8570   -3.0760   33.8150 C.2    80  THR80       0.2287
     59  O        -31.0080   -3.0680   33.3830 O.2    80  THR80      -0.2866
     60  CB       -29.5390   -1.2160   35.4540 C.3    80  THR80       0.1770
     61  OG1      -28.6640   -0.6430   34.4740 O.3    80  THR80      -0.2211
     62  CG2      -29.0660   -0.8330   36.8410 C.3    80  THR80       0.0375
     63  N        -24.6860    7.7400   41.2130 N.3   139  PHE139     -0.1227
     64  CA       -26.0180    8.2540   40.9460 C.3   139  PHE139      0.1736
     65  C        -27.0090    7.1200   41.1160 C.2   139  PHE139      0.2596
     66  O        -26.8300    6.0310   40.5650 O.2   139  PHE139     -0.2718
     67  CB       -26.1050    8.8670   39.5450 C.3   139  PHE139      0.0547
     68  CG       -25.3850   10.1790   39.4170 C.ar  139  PHE139     -0.0202
     69  CD1      -24.0960   10.2310   38.9160 C.ar  139  PHE139     -0.0042
     70  CD2      -25.9910   11.3530   39.8060 C.ar  139  PHE139     -0.0042
     71  CE1      -23.4260   11.4370   38.8010 C.ar  139  PHE139     -0.0003
     72  CE2      -25.3340   12.5600   39.6920 C.ar  139  PHE139     -0.0003
     73  CZ       -24.0490   12.6050   39.1860 C.ar  139  PHE139     -0.0000
     74  N        -28.0480    7.3780   41.8990 N.am  140  THR140     -0.1939
     75  CA       -29.0550    6.3690   42.1840 C.3   140  THR140      0.2028
     76  C        -29.9460    6.1180   40.9740 C.2   140  THR140      0.2643
     77  O        -29.9440    6.8910   40.0210 O.2   140  THR140     -0.2714
     78  CB       -29.9280    6.7970   43.3610 C.3   140  THR140      0.1808
     79  OG1      -30.6290    7.9960   43.0190 O.3   140  THR140     -0.2208
     80  CG2      -29.0650    7.0640   44.5790 C.3   140  THR140      0.0379
     81  N        -30.7010    5.0260   41.0120 N.am  141  THR141     -0.1936
     82  CA       -31.6440    4.7190   39.9470 C.3   141  THR141      0.2028
     83  C        -32.7180    5.7930   39.9190 C.2   141  THR141      0.2642
     84  O        -33.2510    6.1220   38.8620 O.2   141  THR141     -0.2714
     85  CB       -32.2890    3.3340   40.1440 C.3   141  THR141      0.1808
     86  OG1      -31.2700    2.3290   40.1220 O.3   141  THR141     -0.2208
     87  CG2      -33.2920    3.0420   39.0480 C.3   141  THR141      0.0379
     88  N        -33.0220    6.3530   41.0860 N.am  142  ASP142     -0.1971
     89  CA       -33.9350    7.4890   41.1610 C.3   142  ASP142      0.1709
     90  C        -33.4130    8.6550   40.3180 C.2   142  ASP142      0.2293
     91  O        -34.1370    9.2000   39.4930 O.2   142  ASP142     -0.2864
     92  CB       -34.1360    7.9300   42.6080 C.3   142  ASP142      0.1436
     93  CG       -34.8710    6.8900   43.4390 C.2   142  ASP142      0.3671
     94  OD1      -35.6080    6.0640   42.8520 O.co2 142  ASP142     -0.2456
     95  OD2      -34.7170    6.9050   44.6830 O.co2 142  ASP142     -0.2456
@<TRIPOS>BOND
     1    59    58    2
     2    58    57    1
     3    61    60    1
     4    57    60    1
     5    57    56    1
     6    60    62    1
     7     1     2    1
     8    55    54    2
     9     2     5    1
    10     2     3    1
    11    54    53    1
    12    32    31    2
    13    29    30    1
    14     5     6    1
    15     3     4    2
    16    31    30    1
    17    31    33   am
    18    71    69   ar
    19    71    73   ar
    20    84    83    2
    21    69    68   ar
    22    87    85    1
    23    52    53    1
    24    73    72   ar
    25     6     7    1
    26    68    67    1
    27    68    70   ar
    28    34    33    1
    29    34    35    1
    30    91    90    2
    31    67    64    1
    32    72    70   ar
    33    83    82    1
    34    83    88   am
    35    82    85    1
    36    82    81    1
    37    77    76    2
    38    86    85    1
    39    90    89    1
    40    17    16    1
    41    17    18    1
    42    66    65    2
    43     7     8    1
    44    19    18    2
    45    13    12    2
    46    35    36    2
    47    35    37   am
    48    64    65    1
    49    64    63    1
    50    76    81   am
    51    76    75    1
    52    10    11    1
    53    16    12   am
    54    88    89    1
    55    65    74   am
    56    12    11    1
    57    89    92    1
    58     8     9    1
    59    18    20   am
    60    45    46    1
    61    45    42    1
    62    41    42    1
    63    11    14    1
    64    37    38    1
    65    74    75    1
    66    46    47   ar
    67    46    48   ar
    68    75    78    1
    69    47    49   ar
    70    42    43    1
    71    48    50   ar
    72    92    93    1
    73    20    21    1
    74    49    51   ar
    75    94    93   ar
    76    79    78    1
    77    50    51   ar
    78    22    23    2
    79    22    21    1
    80    38    39    1
    81    39    40    2
    82    14    15    1
    83    78    80    1
    84    93    95   ar
    85    21    24    1
    86    43    44    2
    87    28    26   ar
    88    24    25    1
    89    26    25    1
    90    26    27   ar
