@<TRIPOS>MOLECULE
tmp/2v50D00.pdb
 93 86 0 0 0
SMALL
GASTEIGER

@<TRIPOS>ATOM
      1  N         44.2350  -48.6670   86.9790 N.3    13  TRP13      -0.1241
      2  CA        43.0770  -48.6730   86.0930 C.3    13  TRP13       0.1605
      3  C         42.0080  -47.7040   86.5740 C.2    13  TRP13       0.2264
      4  O         41.4620  -46.9270   85.7950 O.2    13  TRP13      -0.2867
      5  CB        42.4840  -50.0760   85.9640 C.3    13  TRP13       0.0550
      6  CG        43.0120  -50.8390   84.7940 C.ar   13  TRP13       0.0003
      7  CD1       43.8010  -51.9470   84.8290 C.ar   13  TRP13       0.0946
      8  CD2       42.7990  -50.5410   83.4090 C.ar   13  TRP13       0.0152
      9  NE1       44.0860  -52.3630   83.5530 N.ar   13  TRP13      -0.2442
     10  CE2       43.4840  -51.5160   82.6640 C.ar   13  TRP13       0.0810
     11  CE3       42.0960  -49.5440   82.7300 C.ar   13  TRP13       0.0012
     12  CZ2       43.4840  -51.5250   81.2750 C.ar   13  TRP13       0.0191
     13  CZ3       42.0970  -49.5560   81.3530 C.ar   13  TRP13       0.0001
     14  CH2       42.7860  -50.5410   80.6400 C.ar   13  TRP13       0.0015
     15  N         40.2950  -44.8780   84.1440 N.3    17  LEU17      -0.1245
     16  CA        38.8520  -44.8460   83.9300 C.3    17  LEU17       0.1561
     17  C         38.2330  -43.4980   84.3070 C.2    17  LEU17       0.2260
     18  O         37.4150  -42.9540   83.5730 O.2    17  LEU17      -0.2867
     19  CB        38.1770  -45.9740   84.7120 C.3    17  LEU17       0.0270
     20  CG        38.4980  -47.3920   84.2460 C.3    17  LEU17       0.0019
     21  CD1       37.8680  -48.4110   85.1690 C.3    17  LEU17       0.0001
     22  CD2       38.0140  -47.5930   82.8300 C.3    17  LEU17       0.0001
     23  N         39.0750  -41.1090   81.5870 N.3    20  MET20      -0.1230
     24  CA        38.2460  -41.3570   80.4120 C.3    20  MET20       0.1702
     25  C         36.8120  -40.9290   80.6940 C.2    20  MET20       0.2592
     26  O         36.1570  -40.3410   79.8470 O.2    20  MET20      -0.2718
     27  CB        38.2850  -42.8300   79.9970 C.3    20  MET20       0.0401
     28  CG        39.6850  -43.3950   79.8220 C.3    20  MET20       0.0596
     29  SD        39.6770  -45.0450   79.0970 S.3    20  MET20      -0.1393
     30  CE        38.9860  -44.6810   77.4930 C.3    20  MET20       0.0692
     31  N         36.3340  -41.2240   81.8960 N.am   21  LEU21      -0.1980
     32  CA        35.0100  -40.8010   82.3280 C.3    21  LEU21       0.1596
     33  C         34.8500  -39.2830   82.1740 C.2    21  LEU21       0.2287
     34  O         33.8750  -38.8040   81.5950 O.2    21  LEU21      -0.2864
     35  CB        34.7960  -41.2130   83.7850 C.3    21  LEU21       0.0297
     36  CG        33.3710  -41.5690   84.2100 C.3    21  LEU21       0.0022
     37  CD1       32.5770  -40.3250   84.5840 C.3    21  LEU21       0.0001
     38  CD2       32.6850  -42.3500   83.0990 C.3    21  LEU21       0.0001
     39  N         34.6090  -38.5560   78.2680 N.3    24  GLY24      -0.1225
     40  CA        33.2970  -38.7970   77.6990 C.3    24  GLY24       0.1811
     41  C         32.2680  -37.7800   78.1510 C.2    24  GLY24       0.2280
     42  O         31.4930  -37.2610   77.3410 O.2    24  GLY24      -0.2866
     43  N         50.2450  -58.5590   72.3930 N.3   354  ARG354     -0.1245
     44  CA        50.0590  -58.0560   73.7470 C.3   354  ARG354      0.1563
     45  C         50.9030  -56.8060   73.9900 C.2   354  ARG354      0.2260
     46  O         50.4590  -55.8820   74.6610 O.2   354  ARG354     -0.2867
     47  CB        50.3820  -59.1410   74.7730 C.3   354  ARG354      0.0307
     48  CG        50.0500  -60.5400   74.2910 C.3   354  ARG354      0.0489
     49  CD        50.4820  -61.6090   75.2880 C.3   354  ARG354      0.2205
     50  NE        49.3470  -62.3170   75.8720 N.pl3 354  ARG354     -0.0865
     51  CZ        48.6850  -61.9140   76.9500 C.cat 354  ARG354      0.5346
     52  NH1       49.0420  -60.8000   77.5700 N.pl3 354  ARG354      0.1354
     53  NH2       47.6640  -62.6230   77.4060 N.pl3 354  ARG354      0.1354
     54  N         40.6120  -38.8620   75.5100 N.3   368  LEU368     -0.1245
     55  CA        39.4760  -38.5150   76.3500 C.3   368  LEU368      0.1561
     56  C         39.9250  -37.6150   77.4910 C.2   368  LEU368      0.2260
     57  O         39.2690  -36.6300   77.8240 O.2   368  LEU368     -0.2867
     58  CB        38.8020  -39.7710   76.8910 C.3   368  LEU368      0.0270
     59  CG        37.7560  -40.4090   75.9770 C.3   368  LEU368      0.0019
     60  CD1       38.2500  -40.4830   74.5300 C.3   368  LEU368      0.0001
     61  CD2       37.3810  -41.7860   76.5030 C.3   368  LEU368      0.0001
     62  N         50.4520  -52.2070   83.3980 N.3   483  LEU483     -0.1245
     63  CA        50.0090  -53.0670   82.3120 C.3   483  LEU483      0.1561
     64  C         51.1030  -54.0640   81.9320 C.2   483  LEU483      0.2260
     65  O         50.8710  -55.2720   81.9440 O.2   483  LEU483     -0.2867
     66  CB        49.5660  -52.2400   81.1070 C.3   483  LEU483      0.0270
     67  CG        48.1160  -51.7530   81.1780 C.3   483  LEU483      0.0019
     68  CD1       47.7730  -50.8400   80.0080 C.3   483  LEU483      0.0001
     69  CD2       47.1560  -52.9330   81.2340 C.3   483  LEU483      0.0001
     70  N         51.2110  -56.8980   84.2310 N.3   486  THR486     -0.1203
     71  CA        50.0820  -57.8170   84.1920 C.3   486  THR486      0.1994
     72  C         49.7090  -58.2700   82.7850 C.2   486  THR486      0.2617
     73  O         48.7320  -58.9980   82.6120 O.2   486  THR486     -0.2717
     74  CB        48.8310  -57.2020   84.8490 C.3   486  THR486      0.1784
     75  OG1       48.2110  -56.2900   83.9370 O.3   486  THR486     -0.2211
     76  CG2       49.2080  -56.4570   86.1140 C.3   486  THR486      0.0376
     77  N         50.4820  -57.8620   81.7810 N.am  487  MET487     -0.1979
     78  CA        50.0750  -58.1260   80.4010 C.3   487  MET487      0.1605
     79  C         51.1700  -58.6630   79.4650 C.2   487  MET487      0.2287
     80  O         50.8810  -59.4730   78.5890 O.2   487  MET487     -0.2864
     81  CB        49.4020  -56.8890   79.8090 C.3   487  MET487      0.0413
     82  CG        48.0620  -57.1710   79.1590 C.3   487  MET487      0.0598
     83  SD        47.1460  -55.6460   78.8780 S.3   487  MET487     -0.1393
     84  CE        48.4100  -54.6730   78.0680 C.3   487  MET487      0.0692
     85  N         54.2590  -61.1870   78.6450 N.3   489  LYS489     -0.1245
     86  CA        54.3050  -62.6170   78.9410 C.3   489  LYS489      0.1561
     87  C         55.5980  -63.3410   78.5180 C.2   489  LYS489      0.2260
     88  O         55.9840  -64.3300   79.1500 O.2   489  LYS489     -0.2867
     89  CB        53.0760  -63.3100   78.3380 C.3   489  LYS489      0.0271
     90  CG        52.8060  -64.6960   78.8930 C.3   489  LYS489      0.0035
     91  CD        51.3160  -64.9130   79.1350 C.3   489  LYS489      0.0206
     92  CE        50.8100  -64.0370   80.2820 C.3   489  LYS489      0.1093
     93  NZ        49.3950  -64.3310   80.6560 N.3   489  LYS489     -0.1314
@<TRIPOS>BOND
     1    43    44    1
     2    44    45    1
     3    44    47    1
     4    45    46    2
     5    48    47    1
     6    48    49    1
     7    60    59    1
     8    49    50    1
     9    54    55    1
    10    50    51    2
    11    59    61    1
    12    59    58    1
    13    55    58    1
    14    55    56    1
    15    51    53    1
    16    51    52    1
    17    42    41    2
    18    56    57    2
    19    30    29    1
    20    40    41    1
    21    40    39    1
    22    84    83    1
    23    89    90    1
    24    89    86    1
    25    87    86    1
    26    87    88    2
    27    80    79    2
    28    85    86    1
    29    83    82    1
    30    90    91    1
    31    29    28    1
    32    91    92    1
    33    82    81    1
    34    79    78    1
    35    81    78    1
    36    28    27    1
    37    26    25    2
    38    27    24    1
    39    68    67    1
    40    92    93    1
    41    78    77    1
    42    24    25    1
    43    24    23    1
    44    14    12   ar
    45    14    13   ar
    46    25    31   am
    47    66    67    1
    48    66    63    1
    49    67    69    1
    50    12    10   ar
    51    13    11   ar
    52    34    33    2
    53    77    72   am
    54    31    32    1
    55    64    65    2
    56    64    63    1
    57    33    32    1
    58    63    62    1
    59    32    35    1
    60    73    72    2
    61    10     8   ar
    62    10     9   ar
    63    11     8   ar
    64    72    71    1
    65    22    20    1
    66    38    36    1
    67     8     6   ar
    68     9     7   ar
    69    18    17    2
    70    35    36    1
    71    16    15    1
    72    16    17    1
    73    16    19    1
    74    75    74    1
    75    71    70    1
    76    71    74    1
    77    36    37    1
    78    20    19    1
    79    20    21    1
    80     6     7   ar
    81     6     5    1
    82    74    76    1
    83     4     3    2
    84     5     2    1
    85     2     3    1
    86     2     1    1
