@<TRIPOS>MOLECULE
tmp/2v54B00.pdb
 87 83 0 0 0
SMALL
GASTEIGER

@<TRIPOS>ATOM
      1  N          1.7270   26.0550  -37.2970 N.3    11  LEU11      -0.1231
      2  CA         0.8290   24.9520  -37.0300 C.3    11  LEU11       0.1693
      3  C          1.5950   23.6560  -37.2410 C.2    11  LEU11       0.2592
      4  O          2.7790   23.6640  -37.5980 O.2    11  LEU11      -0.2718
      5  CB        -0.3640   25.0090  -37.9840 C.3    11  LEU11       0.0284
      6  CG        -1.2300   26.2550  -37.8260 C.3    11  LEU11       0.0019
      7  CD1       -2.3270   26.2670  -38.8750 C.3    11  LEU11       0.0001
      8  CD2       -1.8110   26.2820  -36.4240 C.3    11  LEU11       0.0001
      9  N          0.9230   22.5360  -37.0060 N.am   12  ASP12      -0.1960
     10  CA         1.5410   21.2380  -37.2270 C.3    12  ASP12       0.1840
     11  C          1.6580   21.0600  -38.7500 C.2    12  ASP12       0.2622
     12  O          0.7910   21.5070  -39.4940 O.2    12  ASP12      -0.2715
     13  CB         0.6650   20.1430  -36.6230 C.3    12  ASP12       0.1450
     14  CG         0.8670   19.9710  -35.1230 C.2    12  ASP12       0.3671
     15  OD1        1.6030   19.0410  -34.7230 O.co2  12  ASP12      -0.2456
     16  OD2        0.2970   20.7600  -34.3400 O.co2  12  ASP12      -0.2456
     17  N          2.7330   20.4280  -39.2090 N.am   13  LYS13      -0.1963
     18  CA         2.9390   20.1740  -40.6390 C.3    13  LYS13       0.1728
     19  C          3.2140   21.4530  -41.4270 C.2    13  LYS13       0.2617
     20  O          2.9330   21.5290  -42.6260 O.2    13  LYS13      -0.2715
     21  CB         1.7070   19.4830  -41.2490 C.3    13  LYS13       0.0311
     22  CG         1.2830   18.1890  -40.5810 C.3    13  LYS13       0.0038
     23  CD         2.4300   17.1870  -40.5220 C.3    13  LYS13       0.0206
     24  CE         2.0510   15.9780  -39.6820 C.3    13  LYS13       0.1093
     25  NZ         3.2870   15.2450  -39.2630 N.3    13  LYS13      -0.1314
     26  N          3.7790   22.4570  -40.7750 N.am   14  SER14      -0.1936
     27  CA         4.0170   23.7220  -41.4470 C.3    14  SER14       0.2055
     28  C          5.3950   23.8100  -42.0880 C.2    14  SER14       0.2644
     29  O          5.6760   24.7400  -42.8330 O.2    14  SER14      -0.2714
     30  CB         3.8330   24.8740  -40.4660 C.3    14  SER14       0.2130
     31  OG         4.8910   24.8900  -39.5190 O.3    14  SER14      -0.2179
     32  N          6.2520   22.8470  -41.7770 N.am   15  GLY15      -0.1939
     33  CA         7.5830   22.8390  -42.3490 C.3    15  GLY15       0.2014
     34  C          8.6250   23.4840  -41.4690 C.2    15  GLY15       0.2639
     35  O          9.6840   23.8630  -41.9600 O.2    15  GLY15      -0.2714
     36  N          8.3400   23.5990  -40.1750 N.am   16  LYS16      -0.1963
     37  CA         9.2650   24.2170  -39.2220 C.3    16  LYS16       0.1728
     38  C         10.5950   23.5070  -39.1350 C.2    16  LYS16       0.2617
     39  O         11.6390   24.1130  -39.3510 O.2    16  LYS16      -0.2715
     40  CB         8.6680   24.2470  -37.8120 C.3    16  LYS16       0.0311
     41  CG         7.6170   25.3010  -37.5740 C.3    16  LYS16       0.0038
     42  CD         7.0910   25.2360  -36.1450 C.3    16  LYS16       0.0206
     43  CE         6.3550   23.9340  -35.8530 C.3    16  LYS16       0.1093
     44  NZ         7.3000   22.8210  -35.5530 N.3    16  LYS16      -0.1314
     45  N         10.5550   22.2250  -38.7850 N.am   17  THR17      -0.1937
     46  CA        11.7700   21.4340  -38.6500 C.3    17  THR17       0.2028
     47  C         12.5950   21.5300  -39.9220 C.2    17  THR17       0.2642
     48  O         13.7940   21.7690  -39.8670 O.2    17  THR17      -0.2714
     49  CB        11.4440   19.9540  -38.3580 C.3    17  THR17       0.1808
     50  OG1       10.5860   19.8780  -37.2110 O.3    17  THR17      -0.2208
     51  CG2       12.7210   19.1690  -38.0860 C.3    17  THR17       0.0379
     52  N         11.9420   21.3720  -41.0680 N.am   18  THR18      -0.1950
     53  CA        12.6250   21.4420  -42.3540 C.3    18  THR18       0.1897
     54  C         13.3810   22.7450  -42.5470 C.2    18  THR18       0.2313
     55  O         14.5460   22.7330  -42.9630 O.2    18  THR18      -0.2863
     56  CB        11.6500   21.3030  -43.5170 C.3    18  THR18       0.1794
     57  OG1       10.7930   20.1750  -43.2920 O.3    18  THR18      -0.2208
     58  CG2       12.4180   21.1040  -44.8180 C.3    18  THR18       0.0378
     59  N          9.8070   25.7810  -32.0250 N.3    92  ARG92      -0.1245
     60  CA         8.7050   25.9380  -31.0610 C.3    92  ARG92       0.1563
     61  C          9.1990   26.4980  -29.7260 C.2    92  ARG92       0.2260
     62  O         10.2770   26.1390  -29.2350 O.2    92  ARG92      -0.2867
     63  CB         7.9480   24.6300  -30.8310 C.3    92  ARG92       0.0307
     64  CG         7.0300   24.2630  -31.9760 C.3    92  ARG92       0.0489
     65  CD         6.1110   23.1420  -31.5960 C.3    92  ARG92       0.2205
     66  NE         5.3380   22.6360  -32.7280 N.pl3  92  ARG92      -0.0865
     67  CZ         4.4120   23.3260  -33.3860 C.cat  92  ARG92       0.5346
     68  NH1        4.1160   24.5750  -33.0420 N.pl3  92  ARG92       0.1354
     69  NH2        3.7760   22.7600  -34.4000 N.pl3  92  ARG92       0.1354
     70  N         -0.7150   12.3330  -34.5610 N.3   141  GLU141     -0.1245
     71  CA        -0.3840   12.7060  -33.1970 C.3   141  GLU141      0.1567
     72  C         -1.6270   13.3920  -32.6820 C.2   141  GLU141      0.2260
     73  O         -2.4210   13.8890  -33.4690 O.2   141  GLU141     -0.2867
     74  CB         0.8560   13.5900  -33.1320 C.3   141  GLU141      0.0388
     75  CG         2.1230   12.7560  -33.2540 C.3   141  GLU141      0.1160
     76  CD         3.3750   13.4780  -32.7880 C.2   141  GLU141      0.3649
     77  OE1        4.4150   12.7870  -32.6040 O.co2 141  GLU141     -0.2457
     78  OE2        3.3210   14.7220  -32.6120 O.co2 141  GLU141     -0.2457
     79  N         -3.0760   16.8630  -34.3240 N.3   144  GLU144     -0.1245
     80  CA        -3.1980   17.0180  -35.7730 C.3   144  GLU144      0.1567
     81  C         -4.6400   16.7900  -36.2410 C.2   144  GLU144      0.2260
     82  O         -4.9610   15.8230  -36.9310 O.2   144  GLU144     -0.2867
     83  CB        -2.2130   16.0600  -36.4550 C.3   144  GLU144      0.0388
     84  CG        -0.9380   15.9300  -35.6400 C.3   144  GLU144      0.1160
     85  CD         0.2120   15.2720  -36.3620 C.2   144  GLU144      0.3649
     86  OE1        0.0110   14.2050  -36.9850 O.co2 144  GLU144     -0.2457
     87  OE2        1.3320   15.8270  -36.2780 O.co2 144  GLU144     -0.2457
@<TRIPOS>BOND
     1    58    56    1
     2    56    57    1
     3    56    53    1
     4    55    54    2
     5    29    28    2
     6    20    19    2
     7    54    53    1
     8    53    52    1
     9    33    32    1
    10    33    34    1
    11    28    32   am
    12    28    27    1
    13    35    34    2
    14    34    36   am
    15    27    26    1
    16    27    30    1
    17    19    26   am
    18    19    18    1
    19    21    18    1
    20    21    22    1
    21    52    47   am
    22    18    17    1
    23    22    23    1
    24    23    24    1
    25    30    31    1
    26    36    37    1
    27    47    48    2
    28    47    46    1
    29    24    25    1
    30    12    11    2
    31    39    38    2
    32    37    38    1
    33    37    40    1
    34    17    11   am
    35    38    45   am
    36     7     6    1
    37    45    46    1
    38    11    10    1
    39    46    49    1
    40    49    51    1
    41    49    50    1
    42     5     6    1
    43     5     2    1
    44     6     8    1
    45    40    41    1
    46     4     3    2
    47    41    42    1
    48     1     2    1
    49     3     2    1
    50     3     9   am
    51    10     9    1
    52    10    13    1
    53    86    85   ar
    54    82    81    2
    55    13    14    1
    56    83    80    1
    57    83    84    1
    58    85    87   ar
    59    85    84    1
    60    81    80    1
    61    42    43    1
    62    43    44    1
    63    80    79    1
    64    14    15   ar
    65    14    16   ar
    66    70    71    1
    67    69    67    1
    68    73    72    2
    69    67    68    1
    70    67    66    2
    71    75    74    1
    72    75    76    1
    73    71    74    1
    74    71    72    1
    75    76    78   ar
    76    76    77   ar
    77    66    65    1
    78    59    60    1
    79    64    65    1
    80    64    63    1
    81    60    63    1
    82    60    61    1
    83    61    62    2
