@<TRIPOS>MOLECULE
tmp/2v54A00.pdb
 183 177 0 0 0
SMALL
GASTEIGER

@<TRIPOS>ATOM
      1  N          7.0430   23.9840    8.0520 N.3    13  ASP13      -0.1225
      2  CA         8.4950   23.9250    8.1840 C.3    13  ASP13       0.1805
      3  C          8.7560   23.7850    9.6750 C.2    13  ASP13       0.2597
      4  O          8.0910   24.4310   10.4850 O.2    13  ASP13      -0.2718
      5  CB         9.1340   25.2150    7.6680 C.3    13  ASP13       0.1424
      6  CG         9.1380   25.3080    6.1560 C.2    13  ASP13       0.3668
      7  OD1        9.9750   24.6260    5.5270 O.co2  13  ASP13      -0.2456
      8  OD2        8.2990   26.0480    5.6000 O.co2  13  ASP13      -0.2456
      9  N          9.7010   22.9360   10.0510 N.am   14  LYS14      -0.1979
     10  CA        10.0320   22.7510   11.4600 C.3    14  LYS14       0.1596
     11  C          8.9710   21.9620   12.2210 C.2    14  LYS14       0.2287
     12  O          8.8420   22.1050   13.4350 O.2    14  LYS14      -0.2864
     13  CB        10.2340   24.1130   12.1420 C.3    14  LYS14       0.0298
     14  CG        11.1280   25.0700   11.3690 C.3    14  LYS14       0.0038
     15  CD        12.4460   24.4060   11.0170 C.3    14  LYS14       0.0206
     16  CE        13.2320   25.2150    9.9980 C.3    14  LYS14       0.1093
     17  NZ        14.3660   24.4100    9.4560 N.3    14  LYS14      -0.1314
     18  N          8.8450   16.6310   10.5710 N.3    17  LYS17      -0.1231
     19  CA         8.4940   15.5180    9.6860 C.3    17  LYS17       0.1693
     20  C          9.7070   14.7920    9.1200 C.2    17  LYS17       0.2592
     21  O          9.7160   13.5650    9.0210 O.2    17  LYS17      -0.2718
     22  CB         7.5850   15.9840    8.5400 C.3    17  LYS17       0.0285
     23  CG         8.1590   17.0840    7.7040 C.3    17  LYS17       0.0035
     24  CD         7.4090   17.2300    6.4100 C.3    17  LYS17       0.0206
     25  CE         8.0730   18.3160    5.6100 C.3    17  LYS17       0.1093
     26  NZ         9.5600   18.1820    5.6880 N.3    17  LYS17      -0.1314
     27  N         10.7300   15.5460    8.7480 N.am   18  THR18      -0.1953
     28  CA        11.9220   14.9250    8.2130 C.3    18  THR18       0.1897
     29  C         12.4890   13.9640    9.2600 C.2    18  THR18       0.2313
     30  O         12.9340   12.8650    8.9280 O.2    18  THR18      -0.2863
     31  CB        12.9660   15.9830    7.8320 C.3    18  THR18       0.1794
     32  OG1       12.3690   16.9390    6.9410 O.3    18  THR18      -0.2208
     33  CG2       14.1610   15.3240    7.1500 C.3    18  THR18       0.0378
     34  N         11.8780   12.3560   -1.1850 N.3    37  ASN37      -0.1225
     35  CA        11.5910   13.7020   -0.7330 C.3    37  ASN37       0.1785
     36  C         11.2780   14.6690   -1.8660 C.2    37  ASN37       0.2597
     37  O         11.8710   14.5980   -2.9430 O.2    37  ASN37      -0.2718
     38  CB        12.7780   14.2280    0.0540 C.3    37  ASN37       0.1169
     39  CG        12.5430   15.6080    0.6170 C.2    37  ASN37       0.2627
     40  OD1       12.7680   16.6220   -0.0360 O.2    37  ASN37      -0.2716
     41  ND2       12.0710   15.6490    1.8460 N.am   37  ASN37      -0.0877
     42  N         10.3380   15.5740   -1.6190 N.am   38  PHE38      -0.1963
     43  CA        10.0090   16.5900   -2.5990 C.3    38  PHE38       0.1756
     44  C         10.1970   17.9310   -1.9150 C.2    38  PHE38       0.2461
     45  O          9.8350   18.0920   -0.7470 O.2    38  PHE38      -0.2730
     46  CB         8.5670   16.4280   -3.1070 C.3    38  PHE38       0.0574
     47  CG         8.4000   15.2900   -4.0600 C.ar   38  PHE38      -0.0200
     48  CD1        7.6890   14.1550   -3.6920 C.ar   38  PHE38      -0.0042
     49  CD2        8.9960   15.3310   -5.3170 C.ar   38  PHE38      -0.0042
     50  CE1        7.5740   13.0820   -4.5590 C.ar   38  PHE38      -0.0003
     51  CE2        8.8870   14.2620   -6.1900 C.ar   38  PHE38      -0.0003
     52  CZ         8.1780   13.1400   -5.8130 C.ar   38  PHE38      -0.0000
     53  N         10.7790   18.9100   -2.6240 N.am   39  PRO39      -0.2727
     54  CA        11.2540   18.8160   -4.0040 C.3    39  PRO39       0.1402
     55  C         12.4270   17.8400   -4.0810 C.2    39  PRO39       0.2269
     56  O         13.2660   17.7990   -3.1820 O.2    39  PRO39      -0.2865
     57  CB        11.6670   20.2470   -4.3130 C.3    39  PRO39       0.0296
     58  CG        12.2270   20.6960   -2.9960 C.3    39  PRO39       0.0237
     59  CD        11.1770   20.1990   -2.0290 C.3    39  PRO39       0.0939
     60  N         15.6870   17.1720   -5.3370 N.3    41  ARG41      -0.1245
     61  CA        16.8230   17.9440   -5.8320 C.3    41  ARG41       0.1563
     62  C         17.8520   17.3120   -6.7700 C.2    41  ARG41       0.2260
     63  O         18.8760   17.9230   -7.0450 O.2    41  ARG41      -0.2867
     64  CB        17.5440   18.5600   -4.6310 C.3    41  ARG41       0.0307
     65  CG        16.6290   19.3460   -3.6960 C.3    41  ARG41       0.0489
     66  CD        17.0300   19.1240   -2.2400 C.3    41  ARG41       0.2205
     67  NE        16.0210   19.5450   -1.2580 N.pl3  41  ARG41      -0.0865
     68  CZ        15.7450   20.8150   -0.9970 C.cat  41  ARG41       0.5346
     69  NH1       16.4050   21.7620   -1.6550 N.pl3  41  ARG41       0.1354
     70  NH2       14.8290   21.1450   -0.0920 N.pl3  41  ARG41       0.1354
     71  N         14.6560   28.3380   -3.1480 N.3    53  LEU53      -0.1245
     72  CA        14.4850   28.1890   -1.7040 C.3    53  LEU53       0.1561
     73  C         15.6870   28.7050   -0.9210 C.2    53  LEU53       0.2260
     74  O         15.5310   29.2090    0.1890 O.2    53  LEU53      -0.2867
     75  CB        14.2380   26.7220   -1.3380 C.3    53  LEU53       0.0270
     76  CG        12.8620   26.1740   -1.7010 C.3    53  LEU53       0.0019
     77  CD1       12.8170   24.6990   -1.3960 C.3    53  LEU53       0.0001
     78  CD2       11.7850   26.9340   -0.9330 C.3    53  LEU53       0.0001
     79  N          7.5530   23.0400   -8.8530 N.3    68  PHE68      -0.1241
     80  CA         7.2990   22.0650   -7.7830 C.3    68  PHE68       0.1605
     81  C          6.4100   20.9220   -8.2890 C.2    68  PHE68       0.2264
     82  O          6.6600   19.7380   -8.0230 O.2    68  PHE68      -0.2867
     83  CB         6.5910   22.7360   -6.5970 C.3    68  PHE68       0.0534
     84  CG         7.5220   23.3420   -5.5630 C.ar   68  PHE68      -0.0203
     85  CD1        8.3890   22.5360   -4.8210 C.ar   68  PHE68      -0.0042
     86  CD2        7.4750   24.7060   -5.2780 C.ar   68  PHE68      -0.0042
     87  CE1        9.1770   23.0760   -3.8170 C.ar   68  PHE68      -0.0003
     88  CE2        8.2700   25.2490   -4.2690 C.ar   68  PHE68      -0.0003
     89  CZ         9.1160   24.4320   -3.5400 C.ar   68  PHE68      -0.0000
     90  N          7.3250   16.7890   -9.0620 N.3    72  ARG72      -0.1245
     91  CA         6.6450   15.5750   -8.6400 C.3    72  ARG72       0.1563
     92  C          6.3280   14.6780   -9.8410 C.2    72  ARG72       0.2260
     93  O          6.6110   13.4850   -9.8250 O.2    72  ARG72      -0.2867
     94  CB         5.3680   15.9170   -7.8880 C.3    72  ARG72       0.0307
     95  CG         5.5940   16.2490   -6.4190 C.3    72  ARG72       0.0489
     96  CD         4.2690   16.5010   -5.7200 C.3    72  ARG72       0.2205
     97  NE         3.6190   17.7380   -6.1390 N.pl3  72  ARG72      -0.0865
     98  CZ         4.0140   18.9510   -5.7680 C.cat  72  ARG72       0.5346
     99  NH1        5.0620   19.0910   -4.9650 N.pl3  72  ARG72       0.1354
    100  NH2        3.3650   20.0270   -6.2020 N.pl3  72  ARG72       0.1354
    101  N          8.3330   12.4950    1.8920 N.3    92  ASP92      -0.1225
    102  CA         8.4500   13.7570    2.6160 C.3    92  ASP92       0.1805
    103  C          7.8580   14.8540    1.7250 C.2    92  ASP92       0.2598
    104  O          8.5270   15.3410    0.8120 O.2    92  ASP92      -0.2718
    105  CB         9.9300   14.0210    2.8760 C.3    92  ASP92       0.1424
    106  CG        10.1710   15.1090    3.9040 C.2    92  ASP92       0.3668
    107  OD1        9.4470   16.1280    3.8980 O.co2  92  ASP92      -0.2456
    108  OD2       11.1150   14.9400    4.7070 O.co2  92  ASP92      -0.2456
    109  N          6.6070   15.2280    1.9940 N.am   93  ARG93      -0.1966
    110  CA         5.8730   16.2350    1.2180 C.3    93  ARG93       0.1729
    111  C          5.4220   15.6660   -0.1200 C.2    93  ARG93       0.2616
    112  O          6.1220   14.8750   -0.7460 O.2    93  ARG93      -0.2715
    113  CB         6.7080   17.4920    0.9750 C.3    93  ARG93       0.0348
    114  CG         6.9540   18.3240    2.2000 C.3    93  ARG93       0.0492
    115  CD         7.5910   19.6350    1.8150 C.3    93  ARG93       0.2205
    116  NE         7.8440   20.4680    2.9800 N.pl3  93  ARG93      -0.0865
    117  CZ         6.8910   20.9320    3.7780 C.cat  93  ARG93       0.5346
    118  NH1        5.6200   20.6400    3.5260 N.pl3  93  ARG93       0.1354
    119  NH2        7.2020   21.6830    4.8270 N.pl3  93  ARG93       0.1354
    120  N          4.2400   16.0740   -0.5580 N.am   94  TYR94      -0.1974
    121  CA         3.7040   15.5800   -1.8160 C.3    94  TYR94       0.1639
    122  C          2.8070   16.6680   -2.3880 C.2    94  TYR94       0.2290
    123  O          3.0330   17.8570   -2.1360 O.2    94  TYR94      -0.2864
    124  CB         2.9260   14.2810   -1.5550 C.3    94  TYR94       0.0560
    125  CG         2.6830   13.3880   -2.7650 C.ar   94  TYR94      -0.0198
    126  CD1        3.7110   13.0700   -3.6440 C.ar   94  TYR94      -0.0009
    127  CD2        1.4280   12.8280   -2.9930 C.ar   94  TYR94      -0.0009
    128  CE1        3.4940   12.2060   -4.7280 C.ar   94  TYR94       0.0417
    129  CE2        1.1990   11.9580   -4.0760 C.ar   94  TYR94       0.0417
    130  CZ         2.2350   11.6510   -4.9360 C.ar   94  TYR94       0.1957
    131  OH         2.0140   10.7900   -5.9900 O.3    94  TYR94      -0.2866
    132  N          1.5530   19.5420   -0.0080 N.3    97  SER97      -0.1202
    133  CA         2.4580   20.6740    0.2390 C.3    97  SER97       0.2020
    134  C          2.2940   21.6350   -0.9400 C.2    97  SER97       0.2619
    135  O          2.1370   22.8400   -0.7690 O.2    97  SER97      -0.2717
    136  CB         3.9290   20.2310    0.2730 C.3    97  SER97       0.2103
    137  OG         4.2250   19.3730    1.3600 O.3    97  SER97      -0.2182
    138  N          2.3620   21.0830   -2.1430 N.am   98  GLY98      -0.1956
    139  CA         2.2090   21.8940   -3.3330 C.3    98  GLY98       0.1869
    140  C          0.9560   22.7530   -3.3210 C.2    98  GLY98       0.2309
    141  O          1.0310   23.9400   -3.6230 O.2    98  GLY98      -0.2863
    142  N          1.0100   25.3990   -0.0770 N.3   101  TYR101     -0.1241
    143  CA         1.9130   26.5260   -0.2530 C.3   101  TYR101      0.1605
    144  C          1.5910   27.4350   -1.4230 C.2   101  TYR101      0.2264
    145  O          1.7880   28.6440   -1.3450 O.2   101  TYR101     -0.2867
    146  CB         3.3530   26.0300   -0.3340 C.3   101  TYR101      0.0534
    147  CG         3.8660   25.5890    1.0110 C.ar  101  TYR101     -0.0201
    148  CD1        3.3770   24.4380    1.6180 C.ar  101  TYR101     -0.0009
    149  CD2        4.8250   26.3420    1.6920 C.ar  101  TYR101     -0.0009
    150  CE1        3.8270   24.0430    2.8700 C.ar  101  TYR101      0.0417
    151  CE2        5.2850   25.9610    2.9400 C.ar  101  TYR101      0.0417
    152  CZ         4.7840   24.8130    3.5260 C.ar  101  TYR101      0.1957
    153  OH         5.2460   24.4440    4.7660 O.3   101  TYR101     -0.2866
    154  N         15.1860   30.0190    5.1210 N.3   142  GLU142     -0.1245
    155  CA        14.7030   29.6970    3.7720 C.3   142  GLU142      0.1567
    156  C         13.6080   30.6960    3.3980 C.2   142  GLU142      0.2260
    157  O         12.9950   31.3180    4.2720 O.2   142  GLU142     -0.2867
    158  CB        14.1530   28.2660    3.6830 C.3   142  GLU142      0.0388
    159  CG        15.2200   27.1710    3.6170 C.3   142  GLU142      0.1160
    160  CD        14.8000   26.0000    2.7380 C.2   142  GLU142      0.3649
    161  OE1       13.6740   25.4850    2.9340 O.co2 142  GLU142     -0.2457
    162  OE2       15.5880   25.5980    1.8520 O.co2 142  GLU142     -0.2457
    163  N         10.5090   30.5530    2.6290 N.3   144  TYR144     -0.1227
    164  CA         9.1270   30.3950    3.0920 C.3   144  TYR144      0.1736
    165  C          8.9260   30.3690    4.6070 C.2   144  TYR144      0.2595
    166  O          7.8440   30.0050    5.0780 O.2   144  TYR144     -0.2718
    167  CB         8.5070   29.1160    2.5100 C.3   144  TYR144      0.0548
    168  CG         8.1550   29.1830    1.0430 C.ar  144  TYR144     -0.0200
    169  CD1        7.7140   30.3750    0.4630 C.ar  144  TYR144     -0.0009
    170  CD2        8.2170   28.0450    0.2400 C.ar  144  TYR144     -0.0009
    171  CE1        7.3440   30.4290   -0.8800 C.ar  144  TYR144      0.0417
    172  CE2        7.8470   28.0860   -1.1030 C.ar  144  TYR144      0.0417
    173  CZ         7.4110   29.2830   -1.6550 C.ar  144  TYR144      0.1957
    174  OH         7.0340   29.3400   -2.9780 O.3   144  TYR144     -0.2866
    175  N          9.9400   30.7620    5.3710 N.am  145  GLU145     -0.1979
    176  CA         9.8300   30.7220    6.8270 C.3   145  GLU145      0.1602
    177  C          9.4930   32.0290    7.5520 C.2   145  GLU145      0.2287
    178  O         10.3190   32.6010    8.2670 O.2   145  GLU145     -0.2864
    179  CB        11.0960   30.0750    7.4180 C.3   145  GLU145      0.0415
    180  CG        11.0680   28.5300    7.3850 C.3   145  GLU145      0.1163
    181  CD        12.4330   27.8820    7.1340 C.2   145  GLU145      0.3649
    182  OE1       13.4410   28.3370    7.7220 O.co2 145  GLU145     -0.2457
    183  OE2       12.4910   26.9020    6.3550 O.co2 145  GLU145     -0.2457
@<TRIPOS>BOND
     1    92    93    2
     2    92    91    1
     3    90    91    1
     4    79    80    1
     5    91    94    1
     6    81    82    2
     7    81    80    1
     8    94    95    1
     9    80    83    1
    10    63    62    2
    11    62    61    1
    12    83    84    1
    13    95    96    1
    14   100    98    1
    15    51    52   ar
    16    51    49   ar
    17    97    98    2
    18    97    96    1
    19   131   130    1
    20    61    60    1
    21    61    64    1
    22    52    50   ar
    23    98    99    1
    24    84    86   ar
    25    84    85   ar
    26    49    47   ar
    27    86    88   ar
    28   130   128   ar
    29   130   129   ar
    30    85    87   ar
    31   128   126   ar
    32    64    65    1
    33    50    48   ar
    34    57    54    1
    35    57    58    1
    36    88    89   ar
    37    55    54    1
    38    55    56    2
    39   129   127   ar
    40    47    48   ar
    41    47    46    1
    42    54    53    1
    43    87    89   ar
    44    65    66    1
    45   126   125   ar
    46   141   140    2
    47   139   140    1
    48   139   138    1
    49    71    72    1
    50    46    43    1
    51    58    59    1
    52   127   125   ar
    53   174   173    1
    54    37    36    2
    55   125   124    1
    56    53    59    1
    57    53    44   am
    58    43    44    1
    59    43    42    1
    60   122   123    2
    61   122   121    1
    62    66    67    1
    63   138   134   am
    64    44    45    2
    65    36    42   am
    66    36    35    1
    67   121   124    1
    68   121   120    1
    69    72    75    1
    70    72    73    1
    71    76    77    1
    72    76    75    1
    73    76    78    1
    74   173   172   ar
    75   173   171   ar
    76    69    68    1
    77   144   145    2
    78   144   143    1
    79    67    68    2
    80    34    35    1
    81   172   170   ar
    82    68    70    1
    83   134   135    2
    84   134   133    1
    85    73    74    2
    86   171   169   ar
    87   112   111    2
    88    35    38    1
    89   120   111   am
    90   146   143    1
    91   146   147    1
    92   143   142    1
    93   111   110    1
    94    40    39    2
    95   132   133    1
    96    38    39    1
    97   133   136    1
    98   170   168   ar
    99   136   137    1
   100   169   168   ar
   101    39    41   am
   102   104   103    2
   103   113   110    1
   104   113   114    1
   105   147   148   ar
   106   147   149   ar
   107   168   167    1
   108   110   109    1
   109   148   150   ar
   110   149   151   ar
   111   103   109   am
   112   103   102    1
   113   115   114    1
   114   115   116    1
   115   162   160   ar
   116   101   102    1
   117   167   164    1
   118   102   105    1
   119   163   164    1
   120   160   161   ar
   121   160   159    1
   122   150   152   ar
   123   105   106    1
   124   151   152   ar
   125   116   117    2
   126   164   165    1
   127   156   155    1
   128   156   157    2
   129   152   153    1
   130   118   117    1
   131   159   158    1
   132   158   155    1
   133   155   154    1
   134   117   119    1
   135   107   106   ar
   136   106   108   ar
   137   165   166    2
   138   165   175   am
   139   175   176    1
   140     7     6   ar
   141     8     6   ar
   142    25    26    1
   143    25    24    1
   144     6     5    1
   145   183   181   ar
   146    24    23    1
   147   176   179    1
   148   176   177    1
   149    32    31    1
   150   181   180    1
   151   181   182   ar
   152    33    31    1
   153   180   179    1
   154   177   178    2
   155     5     2    1
   156    23    22    1
   157    31    28    1
   158     1     2    1
   159     2     3    1
   160    28    27    1
   161    28    29    1
   162    22    19    1
   163    27    20   am
   164    30    29    2
   165    21    20    2
   166    20    19    1
   167    17    16    1
   168     3     9   am
   169     3     4    2
   170    19    18    1
   171    16    15    1
   172     9    10    1
   173    15    14    1
   174    14    13    1
   175    10    13    1
   176    10    11    1
   177    11    12    2
