@<TRIPOS>MOLECULE
tmp/2v55A00.pdb
 188 177 0 0 0
SMALL
GASTEIGER

@<TRIPOS>ATOM
      1  N        -16.9710   49.4910   48.7210 N.3    77  ILE77      -0.1231
      2  CA       -16.2300   50.1670   47.6750 C.3    77  ILE77       0.1692
      3  C        -17.0520   50.2940   46.4050 C.2    77  ILE77       0.2593
      4  O        -16.5240   50.2870   45.2960 O.2    77  ILE77      -0.2718
      5  CB       -14.9700   49.3910   47.3590 C.3    77  ILE77       0.0266
      6  CG1      -15.3190   47.9050   47.2100 C.3    77  ILE77       0.0019
      7  CG2      -13.9490   49.6050   48.4640 C.3    77  ILE77       0.0020
      8  CD1      -14.3750   47.1140   46.3070 C.3    77  ILE77       0.0001
      9  N        -18.3580   50.4070   46.5620 N.am   78  GLY78      -0.1942
     10  CA       -19.2050   50.5620   45.4020 C.3    78  GLY78       0.2014
     11  C        -20.6790   50.3760   45.6930 C.2    78  GLY78       0.2639
     12  O        -21.1010   49.3190   46.1640 O.2    78  GLY78      -0.2714
     13  N        -21.4580   51.4230   45.4400 N.am   79  ARG79      -0.1963
     14  CA       -22.8990   51.2900   45.3400 C.3    79  ARG79       0.1729
     15  C        -23.1630   51.2770   43.8510 C.2    79  ARG79       0.2617
     16  O        -22.2790   51.6030   43.0480 O.2    79  ARG79      -0.2715
     17  CB       -23.6250   52.4690   45.9920 C.3    79  ARG79       0.0348
     18  CG       -25.0220   52.1470   46.5170 C.3    79  ARG79       0.0492
     19  CD       -24.9510   51.8120   47.9980 C.3    79  ARG79       0.2205
     20  NE       -24.2560   52.8570   48.7550 N.pl3  79  ARG79      -0.0865
     21  CZ       -23.8590   52.7340   50.0200 C.cat  79  ARG79       0.5346
     22  NH1      -24.0740   51.6040   50.6810 N.pl3  79  ARG79       0.1354
     23  NH2      -23.2430   53.7430   50.6270 N.pl3  79  ARG79       0.1354
     24  N        -24.3730   50.8930   43.4760 N.am   80  GLY80      -0.1940
     25  CA       -24.7310   50.8440   42.0770 C.3    80  GLY80       0.2014
     26  C        -26.2030   50.5660   41.9270 C.2    80  GLY80       0.2639
     27  O        -26.9980   50.8340   42.8300 O.2    80  GLY80      -0.2714
     28  N        -26.5520   50.0170   40.7740 N.am   81  ALA81      -0.1963
     29  CA       -27.9280   49.6970   40.4530 C.3    81  ALA81       0.1728
     30  C        -28.6640   49.1090   41.6490 C.2    81  ALA81       0.2616
     31  O        -29.2150   49.8330   42.4850 O.2    81  ALA81      -0.2715
     32  CB       -27.9650   48.7240   39.2840 C.3    81  ALA81       0.0334
     33  N        -28.6620   47.7840   41.7130 N.am   82  PHE82      -0.1974
     34  CA       -29.3660   47.0530   42.7520 C.3    82  PHE82       0.1639
     35  C        -28.4310   46.7300   43.9200 C.2    82  PHE82       0.2290
     36  O        -27.7640   45.6990   43.9240 O.2    82  PHE82      -0.2864
     37  CB       -29.9310   45.7570   42.1700 C.3    82  PHE82       0.0560
     38  CG       -30.5330   45.9080   40.7930 C.ar   82  PHE82      -0.0200
     39  CD1      -31.8940   46.0720   40.6310 C.ar   82  PHE82      -0.0042
     40  CD2      -29.7430   45.8570   39.6660 C.ar   82  PHE82      -0.0042
     41  CE1      -32.4540   46.1940   39.3700 C.ar   82  PHE82      -0.0003
     42  CE2      -30.2990   45.9780   38.4050 C.ar   82  PHE82      -0.0003
     43  CZ       -31.6560   46.1460   38.2590 C.ar   82  PHE82      -0.0000
     44  N        -21.4860   46.8340   46.4880 N.3    85  VAL85      -0.1245
     45  CA       -20.3700   45.8760   46.4000 C.3    85  VAL85       0.1561
     46  C        -19.3370   46.1540   47.4920 C.2    85  VAL85       0.2260
     47  O        -18.7650   47.2470   47.5750 O.2    85  VAL85      -0.2867
     48  CB       -19.6390   45.8900   45.0320 C.3    85  VAL85       0.0252
     49  CG1      -18.2120   45.3690   45.1840 C.3    85  VAL85       0.0019
     50  CG2      -20.3880   45.0610   44.0130 C.3    85  VAL85       0.0019
     51  N        -14.2250   40.0290   46.8170 N.3    98  ALA98      -0.1245
     52  CA       -14.9670   41.2800   46.6500 C.3    98  ALA98       0.1562
     53  C        -16.4440   41.0470   46.2820 C.2    98  ALA98       0.2260
     54  O        -16.8010   40.9360   45.1070 O.2    98  ALA98      -0.2867
     55  CB       -14.2800   42.1680   45.6250 C.3    98  ALA98       0.0290
     56  N        -20.3620   41.0410   45.4960 N.3   100  LYS100     -0.1245
     57  CA       -21.4040   41.8110   44.8350 C.3   100  LYS100      0.1561
     58  C        -22.7400   41.4170   45.4500 C.2   100  LYS100      0.2260
     59  O        -23.0280   40.2370   45.5830 O.2   100  LYS100     -0.2867
     60  CB       -21.3930   41.5210   43.3260 C.3   100  LYS100      0.0271
     61  CG       -22.3420   42.3700   42.4980 C.3   100  LYS100      0.0035
     62  CD       -21.9170   42.3740   41.0410 C.3   100  LYS100      0.0206
     63  CE       -22.9230   43.1500   40.1850 C.3   100  LYS100      0.1093
     64  NZ       -22.7210   42.9850   38.7040 N.3   100  LYS100     -0.1314
     65  N        -12.5680   38.6240   35.6490 N.3   132  VAL132     -0.1245
     66  CA       -12.5790   38.6300   37.1060 C.3   132  VAL132      0.1561
     67  C        -13.2390   37.3640   37.6430 C.2   132  VAL132      0.2260
     68  O        -14.4440   37.1840   37.5010 O.2   132  VAL132     -0.2867
     69  CB       -13.3290   39.8840   37.6380 C.3   132  VAL132      0.0252
     70  CG1      -13.9590   39.6160   38.9780 C.3   132  VAL132      0.0019
     71  CG2      -12.3940   41.0770   37.7230 C.3   132  VAL132      0.0019
     72  N        -16.1640   37.6430   44.2440 N.3   148  MET148     -0.1230
     73  CA       -15.2230   37.8280   43.1370 C.3   148  MET148      0.1702
     74  C        -13.7950   38.1270   43.6230 C.2   148  MET148      0.2592
     75  O        -13.6170   38.7890   44.6390 O.2   148  MET148     -0.2718
     76  CB       -15.7030   38.9800   42.2350 C.3   148  MET148      0.0401
     77  CG       -17.1990   38.9820   41.8800 C.3   148  MET148      0.0596
     78  SD       -17.6580   40.1670   40.5760 S.3   148  MET148     -0.1393
     79  CE       -17.7090   41.7300   41.4450 C.3   148  MET148      0.0692
     80  N        -12.7780   37.6560   42.9040 N.am  149  GLU149     -0.1966
     81  CA       -11.4080   38.0560   43.2320 C.3   149  GLU149      0.1733
     82  C        -11.3220   39.5790   43.2980 C.2   149  GLU149      0.2616
     83  O        -11.8670   40.2810   42.4480 O.2   149  GLU149     -0.2715
     84  CB       -10.3760   37.4880   42.2370 C.3   149  GLU149      0.0429
     85  CG       -10.5600   37.8880   40.7630 C.3   149  GLU149      0.1163
     86  CD        -9.3550   37.5350   39.8760 C.2   149  GLU149      0.3649
     87  OE1       -9.5500   37.0070   38.7550 O.co2 149  GLU149     -0.2457
     88  OE2       -8.2090   37.7910   40.2970 O.co2 149  GLU149     -0.2457
     89  N        -10.6440   40.0960   44.3130 N.am  150  TYR150     -0.1960
     90  CA       -10.6180   41.5410   44.5390 C.3   150  TYR150      0.1771
     91  C         -9.5440   42.2480   43.7030 C.2   150  TYR150      0.2619
     92  O         -8.4430   41.7280   43.5280 O.2   150  TYR150     -0.2715
     93  CB       -10.4580   41.8140   46.0370 C.3   150  TYR150      0.0574
     94  CG       -10.1430   43.2390   46.4280 C.ar  150  TYR150     -0.0198
     95  CD1      -11.0190   44.2740   46.1520 C.ar  150  TYR150     -0.0009
     96  CD2       -8.9790   43.5390   47.1180 C.ar  150  TYR150     -0.0009
     97  CE1      -10.7230   45.5770   46.5320 C.ar  150  TYR150      0.0417
     98  CE2       -8.6780   44.8280   47.4970 C.ar  150  TYR150      0.0417
     99  CZ        -9.5480   45.8430   47.2050 C.ar  150  TYR150      0.1957
    100  OH        -9.2310   47.1230   47.5920 O.3   150  TYR150     -0.2866
    101  N         -9.8810   43.4260   43.1810 N.am  151  MET151     -0.1977
    102  CA        -8.9840   44.1940   42.3130 C.3   151  MET151      0.1605
    103  C         -8.5500   45.5440   42.9330 C.2   151  MET151      0.2287
    104  O         -9.2300   46.5610   42.7490 O.2   151  MET151     -0.2864
    105  CB        -9.6720   44.4580   40.9720 C.3   151  MET151      0.0413
    106  CG       -10.3030   43.2520   40.3180 C.3   151  MET151      0.0598
    107  SD        -9.2620   42.5600   39.0250 S.3   151  MET151     -0.1393
    108  CE        -8.0920   41.6320   40.0010 C.3   151  MET151      0.0692
    109  N        -11.0040   51.4890   39.5140 N.3   155  ASP155     -0.1239
    110  CA       -11.4760   51.5950   38.1490 C.3   155  ASP155      0.1674
    111  C        -10.4860   52.4360   37.3750 C.2   155  ASP155      0.2266
    112  O         -9.5370   52.9560   37.9540 O.2   155  ASP155     -0.2867
    113  CB       -12.9150   52.1330   38.0460 C.3   155  ASP155      0.1410
    114  CG       -13.2810   53.1030   39.1570 C.2   155  ASP155      0.3668
    115  OD1      -14.4790   53.4720   39.2330 O.co2 155  ASP155     -0.2456
    116  OD2      -12.3920   53.4950   39.9450 O.co2 155  ASP155     -0.2456
    117  N        -21.6470   47.3810   27.6430 N.3   193  ASP193     -0.1239
    118  CA       -21.3450   48.3850   28.6500 C.3   193  ASP193      0.1674
    119  C        -19.8270   48.4660   28.8380 C.2   193  ASP193      0.2266
    120  O        -19.2580   47.8500   29.7410 O.2   193  ASP193     -0.2867
    121  CB       -22.0230   48.0450   29.9700 C.3   193  ASP193      0.1410
    122  CG       -22.0660   49.2180   30.9010 C.2   193  ASP193      0.3668
    123  OD1      -22.2510   48.9960   32.1160 O.co2 193  ASP193     -0.2456
    124  OD2      -21.9090   50.3610   30.4070 O.co2 193  ASP193     -0.2456
    125  N        -16.9810   50.8270   29.6530 N.3   195  LYS195     -0.1245
    126  CA       -16.5200   52.1290   30.1260 C.3   195  LYS195      0.1561
    127  C        -15.3530   52.0200   31.1120 C.2   195  LYS195      0.2260
    128  O        -15.0380   50.9330   31.5710 O.2   195  LYS195     -0.2867
    129  CB       -17.6910   52.9110   30.7280 C.3   195  LYS195      0.0271
    130  CG       -18.6150   52.1180   31.6470 C.3   195  LYS195      0.0035
    131  CD       -19.6280   53.0600   32.2970 C.3   195  LYS195      0.0206
    132  CE       -20.4380   52.3790   33.3950 C.3   195  LYS195      0.1093
    133  NZ       -21.5870   51.5820   32.8780 N.3   195  LYS195     -0.1314
    134  N        -15.3890   52.9000   34.0750 N.3   197  ASP197     -0.1225
    135  CA       -15.9830   52.4720   35.3410 C.3   197  ASP197      0.1805
    136  C        -15.9350   50.9490   35.5120 C.2   197  ASP197      0.2597
    137  O        -15.9550   50.4440   36.6390 O.2   197  ASP197     -0.2718
    138  CB       -17.4310   52.9460   35.4180 C.3   197  ASP197      0.1424
    139  CG       -17.5470   54.4480   35.4560 C.2   197  ASP197      0.3668
    140  OD1      -17.9370   55.0530   34.4290 O.co2 197  ASP197     -0.2456
    141  OD2      -17.2390   55.0210   36.5190 O.co2 197  ASP197     -0.2456
    142  N        -15.8730   50.2350   34.3840 N.am  198  ASN198     -0.1974
    143  CA       -15.8860   48.7650   34.3340 C.3   198  ASN198      0.1688
    144  C        -14.5330   48.1120   34.0320 C.2   198  ASN198      0.2292
    145  O        -14.4750   46.9350   33.6440 O.2   198  ASN198     -0.2864
    146  CB       -16.8810   48.2700   33.2870 C.3   198  ASN198      0.1181
    147  CG       -18.2960   48.4850   33.6950 C.2   198  ASN198      0.2629
    148  OD1      -18.5860   48.6800   34.8720 O.2   198  ASN198     -0.2716
    149  ND2      -19.2020   48.4490   32.7240 N.am  198  ASN198     -0.0877
    150  N        -10.9750   47.2320   35.9080 N.3   200  LEU200     -0.1245
    151  CA       -10.2550   47.1710   37.1810 C.3   200  LEU200      0.1561
    152  C         -8.8070   46.7500   36.9910 C.2   200  LEU200      0.2260
    153  O         -8.4290   46.2970   35.9130 O.2   200  LEU200     -0.2867
    154  CB       -10.9510   46.2290   38.1640 C.3   200  LEU200      0.0270
    155  CG       -12.2800   46.7390   38.7140 C.3   200  LEU200      0.0019
    156  CD1      -12.1340   48.1720   39.1810 C.3   200  LEU200      0.0001
    157  CD2      -13.3230   46.6450   37.6380 C.3   200  LEU200      0.0001
    158  N        -14.8930   43.6930   34.7650 N.3   210  ALA210     -0.1231
    159  CA       -16.0280   43.1500   35.5220 C.3   210  ALA210      0.1694
    160  C        -17.3490   43.8130   35.1020 C.2   210  ALA210      0.2592
    161  O        -17.3630   44.6480   34.1980 O.2   210  ALA210     -0.2718
    162  CB       -15.8040   43.2560   37.0240 C.3   210  ALA210      0.0304
    163  N        -18.4480   43.4450   35.7560 N.am  211  ASP211     -0.1974
    164  CA       -19.7910   43.8320   35.3020 C.3   211  ASP211      0.1709
    165  C        -20.0800   43.3010   33.9010 C.2   211  ASP211      0.2293
    166  O        -19.5150   43.7610   32.9120 O.2   211  ASP211     -0.2864
    167  CB       -20.0090   45.3510   35.3340 C.3   211  ASP211      0.1436
    168  CG       -21.3750   45.7650   34.7620 C.2   211  ASP211      0.3671
    169  OD1      -22.2770   44.9050   34.6620 O.co2 211  ASP211     -0.2456
    170  OD2      -21.5510   46.9510   34.4080 O.co2 211  ASP211     -0.2456
    171  N        -23.8000   53.0530   29.6400 N.3   232  THR232     -0.1218
    172  CA       -23.6450   54.4730   29.9380 C.3   232  THR232      0.1862
    173  C        -23.7150   55.3000   28.6450 C.2   232  THR232      0.2287
    174  O        -23.2600   54.8450   27.6100 O.2   232  THR232     -0.2866
    175  CB       -22.3280   54.7050   30.6890 C.3   232  THR232      0.1770
    176  OG1      -22.4730   54.2470   32.0390 O.3   232  THR232     -0.2211
    177  CG2      -21.9600   56.1720   30.7100 C.3   232  THR232      0.0375
    178  N         -9.8040   53.5000   46.3400 N.3   363  PHE363     -0.1241
    179  CA       -11.2580   53.4960   46.3650 C.3   363  PHE363      0.1605
    180  C        -11.8560   54.5260   47.3180 C.2   363  PHE363      0.2264
    181  O        -11.2500   54.9130   48.3320 O.2   363  PHE363     -0.2867
    182  CB       -11.7930   52.1020   46.6990 C.3   363  PHE363      0.0534
    183  CG       -11.7640   51.1440   45.5390 C.ar  363  PHE363     -0.0203
    184  CD1      -11.9410   51.5990   44.2440 C.ar  363  PHE363     -0.0042
    185  CD2      -11.5960   49.7810   45.7490 C.ar  363  PHE363     -0.0042
    186  CE1      -11.9300   50.7110   43.1790 C.ar  363  PHE363     -0.0003
    187  CE2      -11.5830   48.8900   44.6890 C.ar  363  PHE363     -0.0003
    188  CZ       -11.7470   49.3510   43.4050 C.ar  363  PHE363     -0.0000
@<TRIPOS>BOND
     1   174   173    2
     2   117   118    1
     3   173   172    1
     4   118   119    1
     5   118   121    1
     6   119   120    2
     7   171   172    1
     8   125   126    1
     9   172   175    1
    10   121   122    1
    11   126   129    1
    12   126   127    1
    13   124   122   ar
    14   175   177    1
    15   175   176    1
    16   129   130    1
    17   122   123   ar
    18   127   128    2
    19   130   131    1
    20   131   132    1
    21   149   147   am
    22   133   132    1
    23   166   165    2
    24   146   147    1
    25   146   143    1
    26   145   144    2
    27   147   148    2
    28   165   164    1
    29   144   143    1
    30   134   135    1
    31   161   160    2
    32   143   142    1
    33   142   136   am
    34   170   168   ar
    35   140   139   ar
    36   169   168   ar
    37   168   167    1
    38   158   159    1
    39   160   159    1
    40   160   163   am
    41   164   167    1
    42   164   163    1
    43   135   138    1
    44   135   136    1
    45   138   139    1
    46   139   141   ar
    47   136   137    2
    48   159   162    1
    49    65    66    1
    50   150   151    1
    51   153   152    2
    52   152   151    1
    53    66    69    1
    54    66    67    1
    55   151   154    1
    56   111   112    2
    57   111   110    1
    58    68    67    2
    59   157   155    1
    60    69    71    1
    61    69    70    1
    62   113   110    1
    63   113   114    1
    64   110   109    1
    65   154   155    1
    66    43    42   ar
    67    43    41   ar
    68    42    40   ar
    69    64    63    1
    70   155   156    1
    71    87    86   ar
    72   107   108    1
    73   107   106    1
    74   114   115   ar
    75   114   116   ar
    76    32    29    1
    77    41    39   ar
    78    40    38   ar
    79    86    88   ar
    80    86    85    1
    81    63    62    1
    82   106   105    1
    83    29    28    1
    84    29    30    1
    85    78    79    1
    86    78    77    1
    87    39    38   ar
    88    85    84    1
    89    28    26   am
    90    38    37    1
    91   105   102    1
    92    62    61    1
    93    30    33   am
    94    30    31    2
    95    33    34    1
    96    77    76    1
    97    26    25    1
    98    26    27    2
    99    25    24    1
   100    37    34    1
   101    76    73    1
   102    84    81    1
   103   102   103    1
   104   102   101    1
   105    83    82    2
   106    61    60    1
   107   104   103    2
   108    34    35    1
   109    80    81    1
   110    80    74   am
   111    16    15    2
   112    73    74    1
   113    73    72    1
   114   186   188   ar
   115   186   184   ar
   116   101    91   am
   117    81    82    1
   118    82    89   am
   119    60    57    1
   120   188   187   ar
   121    24    15   am
   122    92    91    2
   123    74    75    2
   124    91    90    1
   125    15    14    1
   126    35    36    2
   127    50    48    1
   128   184   183   ar
   129    89    90    1
   130    90    93    1
   131   187   185   ar
   132    57    58    1
   133    57    56    1
   134    48    49    1
   135    48    45    1
   136    54    53    2
   137     4     3    2
   138    14    13    1
   139    14    17    1
   140    10    11    1
   141    10     9    1
   142    13    11   am
   143    58    59    2
   144   183   185   ar
   145   183   182    1
   146    55    52    1
   147    11    12    2
   148    17    18    1
   149    93    94    1
   150    95    94   ar
   151    95    97   ar
   152    53    52    1
   153     8     6    1
   154   178   179    1
   155   179   182    1
   156   179   180    1
   157    45    44    1
   158    45    46    1
   159     3     9   am
   160     3     2    1
   161    94    96   ar
   162    18    19    1
   163    97    99   ar
   164    52    51    1
   165    96    98   ar
   166    99    98   ar
   167    99   100    1
   168     6     5    1
   169   180   181    2
   170     5     2    1
   171     5     7    1
   172    46    47    2
   173     2     1    1
   174    19    20    1
   175    20    21    2
   176    21    23    1
   177    21    22    1
