@<TRIPOS>MOLECULE
tmp/2v55D00.pdb
 152 149 0 0 0
SMALL
GASTEIGER

@<TRIPOS>ATOM
      1  N         54.2980   23.1100   82.2740 N.3    14  SER14      -0.1202
      2  CA        54.0670   22.1410   83.3230 C.3    14  SER14       0.2020
      3  C         53.0170   22.6390   84.3170 C.2    14  SER14       0.2619
      4  O         53.0180   23.8020   84.7080 O.2    14  SER14      -0.2717
      5  CB        55.3780   21.7870   84.0230 C.3    14  SER14       0.2103
      6  OG        56.1890   20.9750   83.1960 O.3    14  SER14      -0.2182
      7  N         52.1020   21.7480   84.6850 N.am   15  GLN15      -0.1965
      8  CA        51.1550   21.9740   85.7770 C.3    15  GLN15       0.1733
      9  C         49.9680   22.8340   85.3790 C.2    15  GLN15       0.2616
     10  O         49.2560   23.3450   86.2370 O.2    15  GLN15      -0.2715
     11  CB        51.8670   22.5750   86.9880 C.3    15  GLN15       0.0408
     12  CG        51.2920   22.1480   88.3220 C.3    15  GLN15       0.0908
     13  CD        52.3740   21.7870   89.3350 C.2    15  GLN15       0.2608
     14  OE1       52.1510   21.8180   90.5510 O.2    15  GLN15      -0.2717
     15  NE2       53.5530   21.4340   88.8340 N.am   15  GLN15      -0.0878
     16  N         49.7540   22.9840   84.0750 N.am   16  CYS16      -0.1954
     17  CA        48.6430   23.7790   83.5690 C.3    16  CYS16       0.1843
     18  C         47.3680   22.9600   83.5410 C.2    16  CYS16       0.2626
     19  O         46.2940   23.4880   83.3070 O.2    16  CYS16      -0.2714
     20  CB        48.9420   24.2870   82.1670 C.3    16  CYS16       0.0997
     21  SG        49.1830   22.9620   80.9800 S.3    16  CYS16      -0.0797
     22  N         47.4880   21.6600   83.7600 N.am   17  GLY17      -0.1940
     23  CA        46.3150   20.8190   83.9000 C.3    17  GLY17       0.2014
     24  C         45.9890   19.9460   82.7080 C.2    17  GLY17       0.2639
     25  O         44.8160   19.6430   82.4810 O.2    17  GLY17      -0.2714
     26  N         47.0210   19.5420   81.9620 N.am   18  LYS18      -0.1963
     27  CA        46.8740   18.6440   80.8130 C.3    18  LYS18       0.1728
     28  C         46.3870   17.2750   81.2600 C.2    18  LYS18       0.2617
     29  O         45.4320   16.7300   80.7130 O.2    18  LYS18      -0.2715
     30  CB        48.2080   18.4660   80.0690 C.3    18  LYS18       0.0311
     31  CG        48.8670   19.7540   79.6020 C.3    18  LYS18       0.0038
     32  CD        50.2510   19.4950   79.0310 C.3    18  LYS18       0.0206
     33  CE        51.0760   18.6540   79.9850 C.3    18  LYS18       0.1093
     34  NZ        51.0620   19.2360   81.3530 N.3    18  LYS18      -0.1314
     35  N         47.0560   16.7220   82.2630 N.am   19  THR19      -0.1937
     36  CA        46.7720   15.3680   82.7310 C.3    19  THR19       0.2028
     37  C         45.5420   15.3250   83.6670 C.2    19  THR19       0.2642
     38  O         44.9710   14.2740   83.9150 O.2    19  THR19      -0.2714
     39  CB        48.0450   14.7360   83.3680 C.3    19  THR19       0.1808
     40  OG1       49.2050   15.1080   82.5960 O.3    19  THR19      -0.2208
     41  CG2       47.9410   13.2180   83.4150 C.3    19  THR19       0.0379
     42  N         45.1250   16.4840   84.1570 N.am   20  ALA20      -0.1977
     43  CA        43.9000   16.6000   84.9400 C.3    20  ALA20       0.1597
     44  C         42.7110   16.2950   84.0630 C.2    20  ALA20       0.2287
     45  O         41.7100   15.7560   84.5100 O.2    20  ALA20      -0.2864
     46  CB        43.7630   18.0180   85.4870 C.3    20  ALA20       0.0319
     47  N         38.8630   12.4110   88.4690 N.3    30  PHE30      -0.1228
     48  CA        39.9370   13.3930   88.5690 C.3    30  PHE30       0.1721
     49  C         41.0780   12.7880   89.3690 C.2    30  PHE30       0.2437
     50  O         40.8400   12.1770   90.4070 O.2    30  PHE30      -0.2733
     51  CB        39.4080   14.6300   89.2890 C.3    30  PHE30       0.0547
     52  CG        40.3100   15.8430   89.2060 C.ar   30  PHE30      -0.0202
     53  CD1       41.6440   15.7740   89.5630 C.ar   30  PHE30      -0.0042
     54  CD2       39.7990   17.0730   88.8190 C.ar   30  PHE30      -0.0042
     55  CE1       42.4590   16.9030   89.5030 C.ar   30  PHE30      -0.0003
     56  CE2       40.6120   18.2000   88.7600 C.ar   30  PHE30      -0.0003
     57  CZ        41.9390   18.1140   89.1010 C.ar   30  PHE30      -0.0000
     58  N         42.3220   12.9500   88.8880 N.am   31  PRO31      -0.2729
     59  CA        43.5710   12.4750   89.5070 C.3    31  PRO31       0.1401
     60  C         43.7990   12.9440   90.9510 C.2    31  PRO31       0.2269
     61  O         43.8290   14.1470   91.1950 O.2    31  PRO31      -0.2865
     62  CB        44.6430   13.0910   88.6090 C.3    31  PRO31       0.0296
     63  CG        43.9970   13.1970   87.2910 C.3    31  PRO31       0.0237
     64  CD        42.5640   13.5360   87.5600 C.3    31  PRO31       0.0939
     65  N         49.0450   14.7340   91.9180 N.3    34  TYR34      -0.1227
     66  CA        49.8120   15.2200   90.7680 C.3    34  TYR34       0.1736
     67  C         51.1070   14.4460   90.6100 C.2    34  TYR34       0.2595
     68  O         51.8240   14.2130   91.5730 O.2    34  TYR34      -0.2718
     69  CB        50.1520   16.7110   90.8900 C.3    34  TYR34       0.0548
     70  CG        51.2210   17.1900   89.9080 C.ar   34  TYR34      -0.0200
     71  CD1       50.8780   17.7120   88.6690 C.ar   34  TYR34      -0.0009
     72  CD2       52.5680   17.1190   90.2220 C.ar   34  TYR34      -0.0009
     73  CE1       51.8550   18.1510   87.7710 C.ar   34  TYR34       0.0417
     74  CE2       53.5440   17.5510   89.3310 C.ar   34  TYR34       0.0417
     75  CZ        53.1850   18.0660   88.1120 C.ar   34  TYR34       0.1957
     76  OH        54.1570   18.4940   87.2320 O.3    34  TYR34      -0.2866
     77  N         51.4040   14.0510   89.3840 N.am   35  VAL35      -0.1966
     78  CA        52.6940   13.4760   89.0680 C.3    35  VAL35       0.1712
     79  C         53.0830   14.0080   87.7050 C.2    35  VAL35       0.2458
     80  O         52.2880   13.9390   86.7680 O.2    35  VAL35      -0.2730
     81  CB        52.6250   11.9510   89.0110 C.3    35  VAL35       0.0289
     82  CG1       53.7590   11.3940   88.1620 C.3    35  VAL35       0.0023
     83  CG2       52.6550   11.3710   90.4120 C.3    35  VAL35       0.0023
     84  N         54.2970   14.5610   87.5840 N.am   36  PRO36      -0.2716
     85  CA        54.7290   15.1150   86.3000 C.3    36  PRO36       0.1536
     86  C         54.7190   14.0310   85.2350 C.2    36  PRO36       0.2599
     87  O         55.6500   13.2350   85.1590 O.2    36  PRO36      -0.2715
     88  CB        56.1640   15.5640   86.5760 C.3    36  PRO36       0.0310
     89  CG        56.2480   15.6910   88.0450 C.3    36  PRO36       0.0237
     90  CD        55.3600   14.6250   88.5910 C.3    36  PRO36       0.0939
     91  N         53.6630   13.9810   84.4330 N.am   37  THR37      -0.1951
     92  CA        53.6120   13.0220   83.3520 C.3    37  THR37       0.1897
     93  C         54.8120   13.2770   82.4530 C.2    37  THR37       0.2313
     94  O         55.5110   14.2890   82.5910 O.2    37  THR37      -0.2863
     95  CB        52.2950   13.1200   82.5480 C.3    37  THR37       0.1794
     96  OG1       51.9120   14.4990   82.3950 O.3    37  THR37      -0.2208
     97  CG2       51.1690   12.3100   83.2380 C.3    37  THR37       0.0378
     98  N         51.6480   14.7920   77.6300 N.3    60  THR60      -0.1203
     99  CA        53.0930   15.0510   77.5810 C.3    60  THR60       0.1994
    100  C         53.6420   15.8970   78.7250 C.2    60  THR60       0.2619
    101  O         52.9230   16.2410   79.6650 O.2    60  THR60      -0.2717
    102  CB        53.5190   15.7390   76.2770 C.3    60  THR60       0.1784
    103  OG1       52.8740   17.0150   76.1820 O.3    60  THR60      -0.2211
    104  CG2       53.1810   14.8840   75.0530 C.3    60  THR60       0.0376
    105  N         54.9290   16.2270   78.6250 N.am   61  SER61      -0.1937
    106  CA        55.6100   17.0260   79.6360 C.3    61  SER61       0.2055
    107  C         55.6070   18.4880   79.1990 C.2    61  SER61       0.2643
    108  O         55.5200   18.7970   78.0160 O.2    61  SER61      -0.2714
    109  CB        57.0460   16.5140   79.8700 C.3    61  SER61       0.2130
    110  OG        57.5350   16.8740   81.1570 O.3    61  SER61      -0.2179
    111  N         55.6720   19.3900   80.1630 N.am   62  GLY62      -0.1954
    112  CA        55.7780   20.8000   79.8600 C.3    62  GLY62       0.1869
    113  C         57.1240   21.2900   80.3350 C.2    62  GLY62       0.2309
    114  O         57.4910   22.4570   80.1590 O.2    62  GLY62      -0.2863
    115  N         41.8320   25.0060   84.1720 N.3   118  LYS118     -0.1245
    116  CA        41.5280   25.5580   85.4900 C.3   118  LYS118      0.1561
    117  C         40.7530   26.8760   85.4270 C.2   118  LYS118      0.2260
    118  O         41.2240   27.8810   85.9360 O.2   118  LYS118     -0.2867
    119  CB        42.8120   25.7980   86.2910 C.3   118  LYS118      0.0271
    120  CG        43.8670   24.6830   86.2760 C.3   118  LYS118      0.0035
    121  CD        44.7940   24.7910   87.5100 C.3   118  LYS118      0.0206
    122  CE        46.1730   24.1950   87.2860 C.3   118  LYS118      0.1093
    123  NZ        47.0200   24.3550   88.5030 N.3   118  LYS118     -0.1314
    124  N         37.9610   27.5070   86.8630 N.3   120  ASP120     -0.1225
    125  CA        37.2050   27.7200   88.0850 C.3   120  ASP120      0.1805
    126  C         37.9620   28.5820   89.0790 C.2   120  ASP120      0.2597
    127  O         37.3890   29.0240   90.0740 O.2   120  ASP120     -0.2718
    128  CB        36.7980   26.3860   88.7280 C.3   120  ASP120      0.1424
    129  CG        37.9890   25.5390   89.1410 C.2   120  ASP120      0.3668
    130  OD1       38.8970   25.3280   88.3040 O.co2 120  ASP120     -0.2456
    131  OD2       38.0040   25.0690   90.3020 O.co2 120  ASP120     -0.2456
    132  N         39.2430   28.8210   88.8070 N.am  121  LEU121     -0.1979
    133  CA        40.0820   29.6000   89.7130 C.3   121  LEU121      0.1596
    134  C         39.9740   31.0950   89.4380 C.2   121  LEU121      0.2287
    135  O         40.4840   31.9180   90.2000 O.2   121  LEU121     -0.2864
    136  CB        41.5480   29.1660   89.6280 C.3   121  LEU121      0.0297
    137  CG        41.9930   27.8440   90.2500 C.3   121  LEU121      0.0022
    138  CD1       41.5640   26.6980   89.3620 C.3   121  LEU121      0.0001
    139  CD2       43.5050   27.8290   90.4660 C.3   121  LEU121      0.0001
    140  N         38.7040   21.7530   84.2910 N.3   161  ALA161     -0.1231
    141  CA        39.0050   20.3260   84.2950 C.3   161  ALA161      0.1694
    142  C         38.4970   19.6420   85.5820 C.2   161  ALA161      0.2591
    143  O         38.4330   18.4120   85.6510 O.2   161  ALA161     -0.2718
    144  CB        40.5200   20.0890   84.0840 C.3   161  ALA161      0.0304
    145  N         38.1020   20.4490   86.5720 N.am  162  LEU162     -0.1980
    146  CA        37.8220   19.9700   87.9300 C.3   162  LEU162      0.1596
    147  C         36.3600   20.0320   88.3620 C.2   162  LEU162      0.2287
    148  O         35.8330   19.0590   88.9040 O.2   162  LEU162     -0.2864
    149  CB        38.6560   20.7580   88.9420 C.3   162  LEU162      0.0297
    150  CG        38.1730   20.6680   90.3900 C.3   162  LEU162      0.0022
    151  CD1       38.1280   19.2210   90.8330 C.3   162  LEU162      0.0001
    152  CD2       39.0620   21.4910   91.3050 C.3   162  LEU162      0.0001
@<TRIPOS>BOND
     1   104   102    1
     2   103   102    1
     3   102    99    1
     4    99    98    1
     5    99   100    1
     6   108   107    2
     7   105   100   am
     8   105   106    1
     9   100   101    2
    10    32    31    1
    11    32    33    1
    12   107   106    1
    13   107   111   am
    14    31    30    1
    15   106   109    1
    16   112   111    1
    17   112   113    1
    18   109   110    1
    19    33    34    1
    20    30    27    1
    21   114   113    2
    22    29    28    2
    23    27    28    1
    24    27    26    1
    25    21    20    1
    26    28    35   am
    27    26    24   am
    28    20    17    1
    29    35    36    1
    30     1     2    1
    31    96    95    1
    32    93    94    2
    33    93    92    1
    34    25    24    2
    35    95    97    1
    36    95    92    1
    37    40    39    1
    38    24    23    1
    39    36    39    1
    40    36    37    1
    41     6     5    1
    42    19    18    2
    43     2     5    1
    44     2     3    1
    45    92    91    1
    46    39    41    1
    47    18    17    1
    48    18    22   am
    49    17    16    1
    50    37    38    2
    51    37    42   am
    52    22    23    1
    53    44    45    2
    54    44    43    1
    55    16     9   am
    56   144   141    1
    57    42    43    1
    58   115   116    1
    59   140   141    1
    60   141   142    1
    61     3     7   am
    62     3     4    2
    63    91    86   am
    64     7     8    1
    65    43    46    1
    66    87    86    2
    67    86    85    1
    68     9     8    1
    69     9    10    2
    70   117   116    1
    71   117   118    2
    72   116   119    1
    73   142   143    2
    74   142   145   am
    75     8    11    1
    76   120   119    1
    77   120   121    1
    78    85    88    1
    79    85    84    1
    80   145   146    1
    81    88    89    1
    82    80    79    2
    83   124   125    1
    84    11    12    1
    85    76    75    1
    86   122   121    1
    87   122   123    1
    88    63    64    1
    89    63    62    1
    90    64    58    1
    91    84    79   am
    92    84    90    1
    93    79    78    1
    94    73    75   ar
    95    73    71   ar
    96   146   147    1
    97   146   149    1
    98    89    90    1
    99   125   128    1
   100   125   126    1
   101    75    74   ar
   102    82    81    1
   103   130   129   ar
   104    12    13    1
   105   147   148    2
   106    47    48    1
   107    48    51    1
   108    48    49    1
   109    62    59    1
   110    71    70   ar
   111   128   129    1
   112    56    54   ar
   113    56    57   ar
   114   132   126   am
   115   132   133    1
   116    54    52   ar
   117    15    13   am
   118    58    49   am
   119    58    59    1
   120   149   150    1
   121    81    78    1
   122    81    83    1
   123    78    77    1
   124   126   127    2
   125    57    55   ar
   126   129   131   ar
   127    52    51    1
   128    52    53   ar
   129    74    72   ar
   130    13    14    2
   131   138   137    1
   132    49    50    2
   133    77    67   am
   134   134   133    1
   135   134   135    2
   136    55    53   ar
   137    59    60    1
   138   136   133    1
   139   136   137    1
   140    70    72   ar
   141    70    69    1
   142   137   139    1
   143   150   151    1
   144   150   152    1
   145    67    66    1
   146    67    68    2
   147    66    69    1
   148    66    65    1
   149    60    61    2
