@<TRIPOS>MOLECULE
tmp/2v57C00.pdb
 129 125 0 0 0
SMALL
GASTEIGER

@<TRIPOS>ATOM
      1  N        -11.8910    9.5470  -30.1880 N.3    58  HIS58      -0.1241
      2  CA       -10.7020   10.3850  -30.0300 C.3    58  HIS58       0.1621
      3  C        -10.4380   11.2300  -31.2810 C.2    58  HIS58       0.2264
      4  O        -10.1120   12.4300  -31.1780 O.2    58  HIS58      -0.2867
      5  CB        -9.4720    9.5540  -29.6220 C.3    58  HIS58       0.0745
      6  CG        -8.3000   10.3860  -29.2050 C.ar   58  HIS58       0.0817
      7  ND1       -8.2970   11.1400  -28.0480 N.ar   58  HIS58      -0.2268
      8  CD2       -7.0980   10.5980  -29.7940 C.ar   58  HIS58       0.1154
      9  CE1       -7.1460   11.7830  -27.9470 C.ar   58  HIS58       0.1986
     10  NE2       -6.3970   11.4630  -28.9870 N.ar   58  HIS58      -0.2212
     11  N        -12.8210   14.0010  -31.3200 N.3    61  SER61      -0.1202
     12  CA       -12.4250   14.9680  -30.3070 C.3    61  SER61       0.2020
     13  C        -11.3010   15.8650  -30.8390 C.2    61  SER61       0.2618
     14  O        -11.3410   17.0890  -30.6930 O.2    61  SER61      -0.2717
     15  CB       -11.9950   14.2530  -29.0210 C.3    61  SER61       0.2103
     16  OG       -11.4270   15.1620  -28.0840 O.3    61  SER61      -0.2182
     17  N        -10.2840   15.2480  -31.4290 N.am   62  ASN62      -0.1974
     18  CA        -9.2010   16.0160  -32.0650 C.3    62  ASN62       0.1688
     19  C         -9.6780   16.9540  -33.1810 C.2    62  ASN62       0.2292
     20  O         -9.1870   18.0840  -33.3060 O.2    62  ASN62      -0.2864
     21  CB        -8.1020   15.0860  -32.5810 C.3    62  ASN62       0.1181
     22  CG        -7.1940   14.5640  -31.4430 C.2    62  ASN62       0.2629
     23  OD1       -7.0910   15.1710  -30.3620 O.2    62  ASN62      -0.2716
     24  ND2       -6.5700   13.4240  -31.6760 N.am   62  ASN62      -0.0877
     25  N        -11.1990   19.9460  -31.5820 N.3    65  ILE65      -0.1245
     26  CA       -10.1660   20.8610  -31.0980 C.3    65  ILE65       0.1561
     27  C         -9.5960   21.7180  -32.2280 C.2    65  ILE65       0.2260
     28  O         -9.4710   22.9530  -32.0940 O.2    65  ILE65      -0.2867
     29  CB        -9.0290   20.1130  -30.3700 C.3    65  ILE65       0.0252
     30  CG1       -9.5980   19.4080  -29.1400 C.3    65  ILE65       0.0019
     31  CG2       -7.8780   21.1050  -30.0430 C.3    65  ILE65       0.0019
     32  CD1       -8.6160   18.4330  -28.4440 C.3    65  ILE65       0.0001
     33  N        -13.4700    6.2910  -21.7170 N.3    97  TYR97      -0.1241
     34  CA       -12.4250    6.4010  -20.6980 C.3    97  TYR97       0.1605
     35  C        -12.5740    5.4330  -19.5460 C.2    97  TYR97       0.2264
     36  O        -11.5880    5.0840  -18.9100 O.2    97  TYR97      -0.2867
     37  CB       -12.3160    7.8480  -20.1920 C.3    97  TYR97       0.0534
     38  CG       -11.5190    8.7090  -21.1450 C.ar   97  TYR97      -0.0201
     39  CD1      -10.1420    8.8600  -20.9920 C.ar   97  TYR97      -0.0009
     40  CD2      -12.1420    9.3530  -22.2140 C.ar   97  TYR97      -0.0009
     41  CE1       -9.4070    9.6350  -21.8740 C.ar   97  TYR97       0.0417
     42  CE2      -11.4100   10.1300  -23.1020 C.ar   97  TYR97       0.0417
     43  CZ       -10.0550   10.2730  -22.9270 C.ar   97  TYR97       0.1957
     44  OH        -9.3360   11.0460  -23.8250 O.3    97  TYR97      -0.2866
     45  N         -4.2490    8.0070  -27.4580 N.3   112  PHE112     -0.1227
     46  CA        -5.1370    8.8930  -26.7110 C.3   112  PHE112      0.1736
     47  C         -4.4150   10.0910  -26.0990 C.2   112  PHE112      0.2595
     48  O         -5.0440   11.1070  -25.7920 O.2   112  PHE112     -0.2718
     49  CB        -5.9030    8.1210  -25.6240 C.3   112  PHE112      0.0547
     50  CG        -7.2920    7.7360  -26.0400 C.ar  112  PHE112     -0.0202
     51  CD1       -8.3950    8.2040  -25.3420 C.ar  112  PHE112     -0.0042
     52  CD2       -7.4980    6.9340  -27.1500 C.ar  112  PHE112     -0.0042
     53  CE1       -9.6740    7.8650  -25.7310 C.ar  112  PHE112     -0.0003
     54  CE2       -8.7730    6.5910  -27.5320 C.ar  112  PHE112     -0.0003
     55  CZ        -9.8660    7.0580  -26.8230 C.ar  112  PHE112     -0.0000
     56  N         -3.1010    9.9770  -25.9230 N.am  113  ASP113     -0.1960
     57  CA        -2.3510   11.0610  -25.2940 C.3   113  ASP113      0.1840
     58  C         -2.0630   12.2180  -26.2580 C.2   113  ASP113      0.2621
     59  O         -1.5960   13.2810  -25.8400 O.2   113  ASP113     -0.2715
     60  CB        -1.0590   10.5290  -24.6840 C.3   113  ASP113      0.1450
     61  CG        -0.4810   11.4610  -23.6430 C.2   113  ASP113      0.3671
     62  OD1       -1.2500   12.0000  -22.8200 O.co2 113  ASP113     -0.2456
     63  OD2        0.7560   11.6320  -23.6350 O.co2 113  ASP113     -0.2456
     64  N         -2.4050   12.0290  -27.5320 N.am  114  ILE114     -0.1977
     65  CA        -2.0570   12.9820  -28.5810 C.3   114  ILE114      0.1596
     66  C         -3.2540   13.7990  -29.0850 C.2   114  ILE114      0.2287
     67  O         -4.2900   13.2400  -29.4520 O.2   114  ILE114     -0.2864
     68  CB        -1.4180   12.2420  -29.7730 C.3   114  ILE114      0.0276
     69  CG1       -0.1420   11.5200  -29.3200 C.3   114  ILE114      0.0022
     70  CG2       -1.0910   13.2110  -30.9340 C.3   114  ILE114      0.0022
     71  CD1        0.2970   10.4130  -30.2590 C.3   114  ILE114      0.0001
     72  N         -4.1830   17.3880  -27.8790 N.3   116  ASP116     -0.1239
     73  CA        -4.6750   18.5670  -27.1610 C.3   116  ASP116      0.1674
     74  C         -3.6080   19.5980  -26.9380 C.2   116  ASP116      0.2266
     75  O         -3.7430   20.4560  -26.0620 O.2   116  ASP116     -0.2867
     76  CB        -5.3420   18.1770  -25.8220 C.3   116  ASP116      0.1410
     77  CG        -4.3570   17.5920  -24.8130 C.2   116  ASP116      0.3668
     78  OD1       -3.2730   17.1170  -25.2380 O.co2 116  ASP116     -0.2456
     79  OD2       -4.6810   17.5990  -23.5980 O.co2 116  ASP116     -0.2456
     80  N         -3.2040   20.6000  -17.4250 N.3   134  ARG134     -0.1231
     81  CA        -3.8620   19.7630  -18.4330 C.3   134  ARG134      0.1694
     82  C         -4.8270   18.7610  -17.7950 C.2   134  ARG134      0.2591
     83  O         -5.9560   18.5810  -18.2560 O.2   134  ARG134     -0.2718
     84  CB        -2.8150   19.0260  -19.2690 C.3   134  ARG134      0.0321
     85  CG        -3.4040   18.0180  -20.2420 C.3   134  ARG134      0.0489
     86  CD        -2.2830   17.1320  -20.7910 C.3   134  ARG134      0.2205
     87  NE        -2.6350   16.5100  -22.0650 N.pl3 134  ARG134     -0.0865
     88  CZ        -2.1460   15.3400  -22.4590 C.cat 134  ARG134      0.5346
     89  NH1       -1.3240   14.6800  -21.6580 N.pl3 134  ARG134      0.1354
     90  NH2       -2.4770   14.8300  -23.6370 N.pl3 134  ARG134      0.1354
     91  N         -4.3940   18.1200  -16.7200 N.am  135  ARG135     -0.1980
     92  CA        -5.2810   17.1970  -16.0010 C.3   135  ARG135      0.1597
     93  C         -6.5180   17.8800  -15.4550 C.2   135  ARG135      0.2287
     94  O         -7.5790   17.2790  -15.4210 O.2   135  ARG135     -0.2864
     95  CB        -4.5480   16.5410  -14.8320 C.3   135  ARG135      0.0334
     96  CG        -3.2950   15.7950  -15.2300 C.3   135  ARG135      0.0492
     97  CD        -2.7580   14.9960  -14.0310 C.3   135  ARG135      0.2205
     98  NE        -1.4760   14.3700  -14.3300 N.pl3 135  ARG135     -0.0865
     99  CZ        -1.3260   13.2130  -14.9680 C.cat 135  ARG135      0.5346
    100  NH1       -2.3780   12.5340  -15.4040 N.pl3 135  ARG135      0.1354
    101  NH2       -0.1080   12.7340  -15.1720 N.pl3 135  ARG135      0.1354
    102  N         -9.2320   18.5650  -18.2430 N.3   138  TRP138     -0.1227
    103  CA       -10.0210   17.4060  -18.6360 C.3   138  TRP138      0.1737
    104  C        -10.8500   16.8500  -17.4780 C.2   138  TRP138      0.2595
    105  O        -11.8560   16.1800  -17.7000 O.2   138  TRP138     -0.2718
    106  CB        -9.1230   16.3210  -19.2420 C.3   138  TRP138      0.0564
    107  CG        -8.5890   16.7500  -20.5950 C.ar  138  TRP138      0.0003
    108  CD1       -7.2890   17.0280  -20.9080 C.ar  138  TRP138      0.0946
    109  CD2       -9.3500   17.0030  -21.7910 C.ar  138  TRP138      0.0152
    110  NE1       -7.1910   17.4220  -22.2250 N.ar  138  TRP138     -0.2442
    111  CE2       -8.4370   17.4130  -22.7860 C.ar  138  TRP138      0.0810
    112  CE3      -10.7040   16.9130  -22.1160 C.ar  138  TRP138      0.0012
    113  CZ2       -8.8440   17.7200  -24.0900 C.ar  138  TRP138      0.0191
    114  CZ3      -11.1040   17.2220  -23.3990 C.ar  138  TRP138      0.0001
    115  CH2      -10.1780   17.6230  -24.3750 C.ar  138  TRP138      0.0015
    116  N        -10.4220   17.1320  -16.2480 N.am  139  ALA139     -0.1980
    117  CA       -11.2250   16.7790  -15.0720 C.3   139  ALA139      0.1597
    118  C        -12.5150   17.5960  -15.0280 C.2   139  ALA139      0.2287
    119  O        -13.5920   17.0740  -14.6890 O.2   139  ALA139     -0.2864
    120  CB       -10.4200   16.9650  -13.7750 C.3   139  ALA139      0.0319
    121  N        -14.7730   16.2610  -17.5970 N.3   142  GLN142     -0.1245
    122  CA       -15.4530   15.0730  -17.0770 C.3   142  GLN142      0.1566
    123  C        -16.6780   15.4090  -16.2320 C.2   142  GLN142      0.2260
    124  O        -17.7480   14.8290  -16.4340 O.2   142  GLN142     -0.2867
    125  CB       -14.5090   14.2060  -16.2450 C.3   142  GLN142      0.0367
    126  CG       -15.2430   12.9930  -15.7080 C.3   142  GLN142      0.0905
    127  CD       -14.4070   12.1400  -14.7660 C.2   142  GLN142      0.2608
    128  OE1      -14.7320   11.9890  -13.5880 O.2   142  GLN142     -0.2717
    129  NE2      -13.3390   11.5800  -15.2870 N.am  142  GLN142     -0.0878
@<TRIPOS>BOND
     1    20    19    2
     2    19    18    1
     3    21    18    1
     4    21    22    1
     5    27    28    2
     6    27    26    1
     7    18    17    1
     8    24    22   am
     9    25    26    1
    10    22    23    2
    11    17    13   am
    12    11    12    1
    13     3     4    2
    14     3     2    1
    15    26    29    1
    16    70    68    1
    17    13    14    2
    18    13    12    1
    19    29    31    1
    20    29    30    1
    21    12    15    1
    22    71    69    1
    23     1     2    1
    24     2     5    1
    25     8     6   ar
    26     8    10   ar
    27    68    69    1
    28    68    65    1
    29     5     6    1
    30    67    66    2
    31     6     7   ar
    32    30    32    1
    33    66    65    1
    34    15    16    1
    35    10     9   ar
    36    65    64    1
    37     7     9   ar
    38    72    73    1
    39    54    52   ar
    40    54    55   ar
    41    64    58   am
    42    45    46    1
    43    73    74    1
    44    73    76    1
    45    52    50   ar
    46    74    75    2
    47    55    53   ar
    48    46    47    1
    49    46    49    1
    50    58    59    2
    51    58    57    1
    52    47    56   am
    53    47    48    2
    54    50    49    1
    55    50    51   ar
    56    56    57    1
    57    76    77    1
    58    53    51   ar
    59    57    60    1
    60    78    77   ar
    61    77    79   ar
    62    60    61    1
    63   115   113   ar
    64   115   114   ar
    65   113   111   ar
    66    44    43    1
    67    61    63   ar
    68    61    62   ar
    69    90    88    1
    70   114   112   ar
    71    42    43   ar
    72    42    40   ar
    73    43    41   ar
    74   111   110   ar
    75   111   109   ar
    76    88    87    2
    77    88    89    1
    78   110   108   ar
    79    40    38   ar
    80   112   109   ar
    81    87    86    1
    82    41    39   ar
    83   109   107   ar
    84    33    34    1
    85    38    39   ar
    86    38    37    1
    87   108   107   ar
    88    86    85    1
    89    34    37    1
    90    34    35    1
    91   107   106    1
    92    85    84    1
    93    35    36    2
    94    84    81    1
    95   106   103    1
    96   103   102    1
    97   103   104    1
    98    81    82    1
    99    81    80    1
   100    83    82    2
   101    82    91   am
   102   105   104    2
   103   121   122    1
   104   104   116   am
   105   122   125    1
   106   122   123    1
   107    91    92    1
   108   124   123    2
   109   116   117    1
   110   125   126    1
   111    92    93    1
   112    92    95    1
   113   126   127    1
   114    93    94    2
   115   100    99    1
   116   129   127   am
   117    96    95    1
   118    96    97    1
   119   101    99    1
   120   117   118    1
   121   117   120    1
   122   118   119    2
   123    99    98    2
   124   127   128    2
   125    98    97    1
