@<TRIPOS>MOLECULE
tmp/2v58B00.pdb
 149 142 0 0 0
SMALL
GASTEIGER

@<TRIPOS>ATOM
      1  N         53.5090   -6.9980   68.3130 N.3   131  VAL131     -0.1245
      2  CA        54.9540   -7.0110   68.1000 C.3   131  VAL131      0.1561
      3  C         55.6590   -6.8210   69.4420 C.2   131  VAL131      0.2260
      4  O         55.3070   -5.9070   70.1950 O.2   131  VAL131     -0.2867
      5  CB        55.4140   -5.8900   67.1270 C.3   131  VAL131      0.0252
      6  CG1       56.8540   -6.1220   66.6840 C.3   131  VAL131      0.0019
      7  CG2       54.4990   -5.8020   65.9100 C.3   131  VAL131      0.0019
      8  N         62.3320   -0.6110   65.7050 N.3   157  ILE157     -0.1245
      9  CA        61.7340    0.5310   65.0180 C.3   157  ILE157      0.1561
     10  C         61.0700    1.4980   66.0030 C.2   157  ILE157      0.2260
     11  O         60.3890    1.0770   66.9420 O.2   157  ILE157     -0.2867
     12  CB        60.7560    0.0850   63.8780 C.3   157  ILE157      0.0252
     13  CG1       60.3160    1.2870   63.0320 C.3   157  ILE157      0.0019
     14  CG2       59.5610   -0.6970   64.4340 C.3   157  ILE157      0.0019
     15  CD1       59.8220    0.9310   61.6460 C.3   157  ILE157      0.0001
     16  N         58.3040    4.3450   66.4260 N.3   159  LYS159     -0.1245
     17  CA        57.0660    4.7660   65.7740 C.3   159  LYS159      0.1561
     18  C         56.3510    5.8860   66.5210 C.2   159  LYS159      0.2260
     19  O         56.3290    5.9070   67.7500 O.2   159  LYS159     -0.2867
     20  CB        56.1160    3.5800   65.6180 C.3   159  LYS159      0.0271
     21  CG        56.4670    2.6300   64.4940 C.3   159  LYS159      0.0035
     22  CD        55.4470    1.5110   64.4140 C.3   159  LYS159      0.0206
     23  CE        55.6410    0.6770   63.1690 C.3   159  LYS159      0.1093
     24  NZ        54.6710   -0.4480   63.1170 N.3   159  LYS159     -0.1314
     25  N         58.5230    7.2450   61.4810 N.3   169  MET169     -0.1245
     26  CA        59.0150    5.8680   61.5100 C.3   169  MET169      0.1570
     27  C         60.5000    5.8230   61.1700 C.2   169  MET169      0.2261
     28  O         60.9150    6.2880   60.1060 O.2   169  MET169     -0.2867
     29  CB        58.2270    4.9820   60.5400 C.3   169  MET169      0.0387
     30  CG        56.9190    4.4410   61.0990 C.3   169  MET169      0.0595
     31  SD        55.9430    3.5330   59.8800 S.3   169  MET169     -0.1393
     32  CE        56.8610    2.0010   59.7500 C.3   169  MET169      0.0692
     33  N         59.1220   -1.0450   68.8910 N.3   201  GLU201     -0.1231
     34  CA        58.8230   -2.4590   68.6770 C.3   201  GLU201      0.1699
     35  C         59.9290   -3.1170   67.8490 C.2   201  GLU201      0.2592
     36  O         60.7500   -2.4270   67.2390 O.2   201  GLU201     -0.2718
     37  CB        57.4300   -2.6650   68.0460 C.3   201  GLU201      0.0402
     38  CG        57.0240   -1.6550   66.9770 C.3   201  GLU201      0.1161
     39  CD        55.6780   -1.9730   66.3290 C.2   201  GLU201      0.3649
     40  OE1       54.6500   -2.0460   67.0400 O.co2 201  GLU201     -0.2457
     41  OE2       55.6480   -2.1380   65.0940 O.co2 201  GLU201     -0.2457
     42  N         59.9600   -4.4480   67.8540 N.am  202  LYS202     -0.1966
     43  CA        60.9120   -5.2070   67.0440 C.3   202  LYS202      0.1728
     44  C         60.6420   -4.9960   65.5610 C.2   202  LYS202      0.2616
     45  O         59.5130   -5.1770   65.0980 O.2   202  LYS202     -0.2715
     46  CB        60.8390   -6.7000   67.3790 C.3   202  LYS202      0.0311
     47  CG        61.9250   -7.5390   66.7150 C.3   202  LYS202      0.0038
     48  CD        61.9320   -8.9630   67.2380 C.3   202  LYS202      0.0206
     49  CE        63.1120   -9.7390   66.6750 C.3   202  LYS202      0.1093
     50  NZ        63.2420  -11.0830   67.3010 N.3   202  LYS202     -0.1314
     51  N         61.6760   -4.6110   64.8190 N.am  203  TYR203     -0.1960
     52  CA        61.5340   -4.4120   63.3820 C.3   203  TYR203      0.1771
     53  C         61.5880   -5.7420   62.6400 C.2   203  TYR203      0.2619
     54  O         62.6170   -6.4230   62.6400 O.2   203  TYR203     -0.2715
     55  CB        62.5910   -3.4440   62.8390 C.3   203  TYR203      0.0574
     56  CG        62.3990   -3.1050   61.3740 C.ar  203  TYR203     -0.0198
     57  CD1       61.3250   -2.3160   60.9570 C.ar  203  TYR203     -0.0009
     58  CD2       63.2850   -3.5770   60.4050 C.ar  203  TYR203     -0.0009
     59  CE1       61.1370   -2.0030   59.6140 C.ar  203  TYR203      0.0417
     60  CE2       63.1060   -3.2670   59.0540 C.ar  203  TYR203      0.0417
     61  CZ        62.0300   -2.4790   58.6700 C.ar  203  TYR203      0.1957
     62  OH        61.8440   -2.1670   57.3430 O.3   203  TYR203     -0.2866
     63  N         60.4660   -6.1110   62.0260 N.am  204  LEU204     -0.1977
     64  CA        60.4050   -7.3000   61.1850 C.3   204  LEU204      0.1596
     65  C         60.8730   -6.9410   59.7780 C.2   204  LEU204      0.2287
     66  O         60.2950   -6.0680   59.1240 O.2   204  LEU204     -0.2864
     67  CB        58.9950   -7.9030   61.1710 C.3   204  LEU204      0.0297
     68  CG        58.3610   -8.3280   62.5040 C.3   204  LEU204      0.0022
     69  CD1       57.0510   -9.0510   62.2450 C.3   204  LEU204      0.0001
     70  CD2       59.2920   -9.2040   63.3440 C.3   204  LEU204      0.0001
     71  N         58.2350   -8.7410   56.3630 N.3   207  PRO207     -0.2116
     72  CA        56.9370   -9.2960   56.7150 C.3   207  PRO207      0.1372
     73  C         55.9370   -9.1740   55.5700 C.2   207  PRO207      0.2244
     74  O         56.2000   -8.4890   54.5800 O.2   207  PRO207     -0.2868
     75  CB        56.4990   -8.4180   57.8890 C.3   207  PRO207      0.0268
     76  CG        57.1150   -7.0830   57.6050 C.3   207  PRO207      0.0207
     77  CD        58.3490   -7.3230   56.7620 C.3   207  PRO207      0.0892
     78  N         51.9020   -7.9580   54.8600 N.3   209  HIS209     -0.1241
     79  CA        50.8630   -7.1290   55.4530 C.3   209  HIS209      0.1621
     80  C         49.5220   -7.8320   55.2850 C.2   209  HIS209      0.2264
     81  O         48.9460   -7.8580   54.1930 O.2   209  HIS209     -0.2867
     82  CB        50.8610   -5.7290   54.8280 C.3   209  HIS209      0.0745
     83  CG        50.1500   -4.6950   55.6460 C.ar  209  HIS209      0.0817
     84  ND1       49.6380   -3.5390   55.0960 N.ar  209  HIS209     -0.2268
     85  CD2       49.8610   -4.6410   56.9680 C.ar  209  HIS209      0.1154
     86  CE1       49.0690   -2.8160   56.0430 C.ar  209  HIS209      0.1986
     87  NE2       49.1890   -3.4620   57.1890 N.ar  209  HIS209     -0.2212
     88  N         52.7210   -3.1850   47.6880 N.3   233  GLN233     -0.1245
     89  CA        52.6360   -1.7720   48.0220 C.3   233  GLN233      0.1566
     90  C         53.9240   -1.0350   47.6640 C.2   233  GLN233      0.2260
     91  O         54.9530   -1.6560   47.3870 O.2   233  GLN233     -0.2867
     92  CB        52.3060   -1.6000   49.5150 C.3   233  GLN233      0.0367
     93  CG        53.4130   -2.0370   50.4860 C.3   233  GLN233      0.0905
     94  CD        54.4280   -0.9390   50.7570 C.2   233  GLN233      0.2608
     95  OE1       54.0670    0.2190   50.9560 O.2   233  GLN233     -0.2717
     96  NE2       55.7040   -1.3000   50.7720 N.am  233  GLN233     -0.0878
     97  N         54.4080    3.0040   51.4420 N.3   236  HIS236     -0.1241
     98  CA        53.2680    2.9620   52.3720 C.3   236  HIS236      0.1621
     99  C         51.8990    3.1340   51.6900 C.2   236  HIS236      0.2264
    100  O         50.8920    3.3920   52.3540 O.2   236  HIS236     -0.2867
    101  CB        53.4570    3.9650   53.5220 C.3   236  HIS236      0.0745
    102  CG        54.7440    3.7900   54.2690 C.ar  236  HIS236      0.0817
    103  ND1       54.8360    3.0540   55.4310 N.ar  236  HIS236     -0.2268
    104  CD2       55.9920    4.2480   54.0140 C.ar  236  HIS236      0.1154
    105  CE1       56.0850    3.0730   55.8630 C.ar  236  HIS236      0.1986
    106  NE2       56.8060    3.7900   55.0210 N.ar  236  HIS236     -0.2212
    107  N         51.3380   -7.6750   60.9760 N.3   278  LEU278     -0.1245
    108  CA        52.5230   -8.1380   60.2780 C.3   278  LEU278      0.1561
    109  C         52.5060   -9.6600   60.3450 C.2   278  LEU278      0.2260
    110  O         52.3060  -10.2390   61.4180 O.2   278  LEU278     -0.2867
    111  CB        53.7980   -7.5940   60.9270 C.3   278  LEU278      0.0270
    112  CG        54.0170   -6.0790   60.9860 C.3   278  LEU278      0.0019
    113  CD1       55.1720   -5.7680   61.9190 C.3   278  LEU278      0.0001
    114  CD2       54.2640   -5.4800   59.6040 C.3   278  LEU278      0.0001
    115  N         49.7660   -4.3380   64.5660 N.3   287  ILE287     -0.1231
    116  CA        50.4100   -3.0210   64.4900 C.3   287  ILE287      0.1692
    117  C         49.4460   -1.8420   64.6770 C.2   287  ILE287      0.2591
    118  O         49.7680   -0.8880   65.3880 O.2   287  ILE287     -0.2718
    119  CB        51.2540   -2.8300   63.1990 C.3   287  ILE287      0.0266
    120  CG1       50.5030   -3.3300   61.9550 C.3   287  ILE287      0.0019
    121  CG2       52.6080   -3.5140   63.3560 C.3   287  ILE287      0.0020
    122  CD1       51.0690   -2.8240   60.6380 C.3   287  ILE287      0.0001
    123  N         48.2770   -1.9080   64.0420 N.am  288  GLU288     -0.1979
    124  CA        47.2800   -0.8350   64.1400 C.3   288  GLU288      0.1602
    125  C         45.8820   -1.2790   63.7200 C.2   288  GLU288      0.2287
    126  O         45.7180   -2.2710   63.0050 O.2   288  GLU288     -0.2864
    127  CB        47.7090    0.4030   63.3360 C.3   288  GLU288      0.0415
    128  CG        47.8790    0.1680   61.8460 C.3   288  GLU288      0.1163
    129  CD        48.4960    1.3560   61.1350 C.2   288  GLU288      0.3649
    130  OE1       47.8360    2.4130   61.0470 O.co2 288  GLU288     -0.2457
    131  OE2       49.6440    1.2270   60.6570 O.co2 288  GLU288     -0.2457
    132  N         56.2600   -7.1110   51.8080 N.3   437  ILE437     -0.1231
    133  CA        55.9340   -5.6890   51.6490 C.3   437  ILE437      0.1692
    134  C         56.9670   -4.8910   50.8430 C.2   437  ILE437      0.2592
    135  O         56.6770   -3.7890   50.3770 O.2   437  ILE437     -0.2718
    136  CB        55.7120   -4.9900   53.0230 C.3   437  ILE437      0.0266
    137  CG1       56.9450   -5.1490   53.9220 C.3   437  ILE437      0.0019
    138  CG2       54.4470   -5.5240   53.7050 C.3   437  ILE437      0.0020
    139  CD1       57.0050   -4.1780   55.0750 C.3   437  ILE437      0.0001
    140  N         58.1640   -5.4480   50.6830 N.am  438  HIS438     -0.1976
    141  CA        59.2560   -4.7400   50.0160 C.3   438  HIS438      0.1656
    142  C         59.4590   -5.1670   48.5610 C.2   438  HIS438      0.2291
    143  O         60.3050   -4.6010   47.8660 O.2   438  HIS438     -0.2864
    144  CB        60.5670   -4.9050   50.7980 C.3   438  HIS438      0.0771
    145  CG        60.4890   -4.4410   52.2200 C.ar  438  HIS438      0.0820
    146  ND1       60.2140   -3.1340   52.5640 N.ar  438  HIS438     -0.2267
    147  CD2       60.6600   -5.1090   53.3850 C.ar  438  HIS438      0.1154
    148  CE1       60.2120   -3.0200   53.8800 C.ar  438  HIS438      0.1986
    149  NE2       60.4790   -4.2030   54.4020 N.ar  438  HIS438     -0.2212
@<TRIPOS>BOND
     1    91    90    2
     2    90    89    1
     3    88    89    1
     4   143   142    2
     5    89    92    1
     6   142   141    1
     7    92    93    1
     8   141   140    1
     9   141   144    1
    10   135   134    2
    11    93    94    1
    12   140   134   am
    13    94    96   am
    14    94    95    2
    15   144   145    1
    16   134   133    1
    17    97    98    1
    18   133   132    1
    19   133   136    1
    20    99   100    2
    21    99    98    1
    22   145   146   ar
    23   145   147   ar
    24    98   101    1
    25   146   148   ar
    26   136   138    1
    27   136   137    1
    28   147   149   ar
    29   101   102    1
    30   148   149   ar
    31   137   139    1
    32   104   102   ar
    33   104   106   ar
    34    81    80    2
    35   102   103   ar
    36    74    73    2
    37    82    79    1
    38    82    83    1
    39    78    79    1
    40   106   105   ar
    41    84    83   ar
    42    84    86   ar
    43    80    79    1
    44   103   105   ar
    45    73    72    1
    46    83    85   ar
    47    86    87   ar
    48    71    72    1
    49    71    77    1
    50    72    75    1
    51    77    76    1
    52    85    87   ar
    53    62    61    1
    54    76    75    1
    55    61    60   ar
    56    61    59   ar
    57    60    58   ar
    58    66    65    2
    59   114   112    1
    60    59    57   ar
    61    32    31    1
    62    65    64    1
    63    31    30    1
    64    28    27    2
    65   108   109    1
    66   108   111    1
    67   108   107    1
    68   109   110    2
    69    58    56   ar
    70    29    30    1
    71    29    26    1
    72   122   120    1
    73   131   129   ar
    74   111   112    1
    75    57    56   ar
    76   112   113    1
    77   130   129   ar
    78   129   128    1
    79    27    26    1
    80    67    64    1
    81    67    68    1
    82    64    63    1
    83    56    55    1
    84    25    26    1
    85    15    13    1
    86   128   127    1
    87   120   119    1
    88    63    53   am
    89    69    68    1
    90    68    70    1
    91    53    54    2
    92    53    52    1
    93    55    52    1
    94   126   125    2
    95    13    12    1
    96    24    23    1
    97    23    22    1
    98   119   121    1
    99   119   116    1
   100   127   124    1
   101    52    51    1
   102   125   124    1
   103    12    14    1
   104    12     9    1
   105   123   124    1
   106   123   117   am
   107    22    21    1
   108   116   115    1
   109   116   117    1
   110    21    20    1
   111   117   118    2
   112    51    44   am
   113     9     8    1
   114     9    10    1
   115    41    39   ar
   116    45    44    2
   117    44    43    1
   118    20    17    1
   119    17    16    1
   120    17    18    1
   121     7     5    1
   122    10    11    2
   123    39    38    1
   124    39    40   ar
   125    18    19    2
   126    49    48    1
   127    49    50    1
   128     6     5    1
   129    47    48    1
   130    47    46    1
   131    38    37    1
   132    43    46    1
   133    43    42    1
   134     5     2    1
   135    36    35    2
   136    35    42   am
   137    35    34    1
   138    37    34    1
   139     2     1    1
   140     2     3    1
   141    34    33    1
   142     3     4    2
