@<TRIPOS>MOLECULE
tmp/2v59A00.pdb
 180 170 0 0 0
SMALL
GASTEIGER

@<TRIPOS>ATOM
      1  N          4.6290  -33.0890   27.4320 N.3   131  VAL131     -0.1245
      2  CA         3.2220  -32.7020   27.2900 C.3   131  VAL131      0.1561
      3  C          2.4370  -33.8980   26.7320 C.2   131  VAL131      0.2260
      4  O          2.9120  -34.5660   25.8060 O.2   131  VAL131     -0.2867
      5  CB         3.0290  -31.4700   26.3550 C.3   131  VAL131      0.0252
      6  CG1        1.6400  -30.8780   26.5210 C.3   131  VAL131      0.0019
      7  CG2        4.0660  -30.3920   26.6210 C.3   131  VAL131      0.0019
      8  N         -2.5500  -27.9050   20.6240 N.3   157  ILE157     -0.1245
      9  CA        -1.6620  -27.0950   19.8040 C.3   157  ILE157      0.1561
     10  C         -0.9880  -27.9550   18.7290 C.2   157  ILE157      0.2260
     11  O         -0.5270  -29.0670   18.9970 O.2   157  ILE157     -0.2867
     12  CB        -0.6290  -26.3050   20.6690 C.3   157  ILE157      0.0252
     13  CG1        0.1290  -25.2780   19.8080 C.3   157  ILE157      0.0019
     14  CG2        0.3100  -27.2550   21.4060 C.3   157  ILE157      0.0019
     15  CD1        0.7830  -24.1460   20.5950 C.3   157  ILE157      0.0001
     16  N          2.1320  -28.2920   16.1730 N.3   159  LYS159     -0.1245
     17  CA         3.5010  -27.8010   16.1290 C.3   159  LYS159      0.1561
     18  C          4.2790  -28.4170   14.9810 C.2   159  LYS159      0.2260
     19  O          4.0740  -29.5800   14.6350 O.2   159  LYS159     -0.2867
     20  CB         4.2180  -28.0880   17.4500 C.3   159  LYS159      0.0271
     21  CG         3.7650  -27.2400   18.6270 C.3   159  LYS159      0.0035
     22  CD         4.5170  -27.6420   19.8770 C.3   159  LYS159      0.0206
     23  CE         4.2570  -26.6920   21.0280 C.3   159  LYS159      0.1093
     24  NZ         5.1900  -26.9650   22.1520 N.3   159  LYS159     -0.1314
     25  N         10.7360  -22.1790   18.9970 N.3   165  GLY165     -0.1225
     26  CA        10.3320  -20.8490   19.4500 C.3   165  GLY165      0.1811
     27  C          8.8460  -20.6420   19.2310 C.2   165  GLY165      0.2280
     28  O          8.0170  -21.3010   19.8630 O.2   165  GLY165     -0.2866
     29  N          3.2070  -22.7480   14.7760 N.3   169  MET169     -0.1245
     30  CA         2.2600  -23.3670   15.6980 C.3   169  MET169      0.1570
     31  C          0.9460  -22.6230   15.7840 C.2   169  MET169      0.2261
     32  O          0.9240  -21.3970   15.7560 O.2   169  MET169     -0.2867
     33  CB         2.8750  -23.4770   17.1040 C.3   169  MET169      0.0387
     34  CG         3.4460  -22.1660   17.6490 C.3   169  MET169      0.0595
     35  SD         3.9940  -22.2570   19.3620 S.3   169  MET169     -0.1393
     36  CE         5.3170  -23.4640   19.2310 C.3   169  MET169      0.0692
     37  N         -2.9900  -22.8590   18.0430 N.3   171  VAL171     -0.1245
     38  CA        -3.9330  -23.3980   19.0070 C.3   171  VAL171      0.1561
     39  C         -5.2400  -23.7490   18.2960 C.2   171  VAL171      0.2260
     40  O         -5.7310  -22.9900   17.4570 O.2   171  VAL171     -0.2867
     41  CB        -4.2040  -22.3700   20.1440 C.3   171  VAL171      0.0252
     42  CG1       -5.1380  -22.9390   21.2170 C.3   171  VAL171      0.0019
     43  CG2       -2.9010  -21.9130   20.7630 C.3   171  VAL171      0.0019
     44  N          0.0310  -31.4700   20.6680 N.3   201  GLU201     -0.1231
     45  CA         0.2350  -31.4480   22.1090 C.3   201  GLU201      0.1699
     46  C         -0.9920  -30.8240   22.7390 C.2   201  GLU201      0.2592
     47  O         -1.6680  -30.0090   22.1010 O.2   201  GLU201     -0.2718
     48  CB         1.4670  -30.6030   22.4750 C.3   201  GLU201      0.0402
     49  CG         2.8130  -31.2440   22.1700 C.3   201  GLU201      0.1161
     50  CD         3.9830  -30.4780   22.7650 C.2   201  GLU201      0.3649
     51  OE1        5.0450  -31.0960   23.0020 O.co2 201  GLU201     -0.2457
     52  OE2        3.8480  -29.2590   23.0030 O.co2 201  GLU201     -0.2457
     53  N         -1.2830  -31.2070   23.9820 N.am  202  LYS202     -0.1966
     54  CA        -2.2950  -30.5180   24.7850 C.3   202  LYS202      0.1728
     55  C         -1.8770  -29.0660   25.0140 C.2   202  LYS202      0.2616
     56  O         -0.7580  -28.8100   25.4360 O.2   202  LYS202     -0.2715
     57  CB        -2.5120  -31.2430   26.1200 C.3   202  LYS202      0.0311
     58  CG        -3.3320  -30.4540   27.1300 C.3   202  LYS202      0.0038
     59  CD        -4.4940  -31.2620   27.6810 C.3   202  LYS202      0.0206
     60  CE        -5.6230  -30.3380   28.1330 C.3   202  LYS202      0.1093
     61  NZ        -6.8980  -31.0840   28.2930 N.3   202  LYS202     -0.1314
     62  N         -2.7640  -28.1170   24.7270 N.am  203  TYR203     -0.1960
     63  CA        -2.4130  -26.7100   24.9120 C.3   203  TYR203      0.1771
     64  C         -2.4580  -26.2970   26.3800 C.2   203  TYR203      0.2619
     65  O         -3.5040  -26.3730   27.0280 O.2   203  TYR203     -0.2715
     66  CB        -3.2630  -25.7660   24.0510 C.3   203  TYR203      0.0574
     67  CG        -2.7860  -24.3220   24.1150 C.ar  203  TYR203     -0.0198
     68  CD1       -1.5210  -23.9630   23.6440 C.ar  203  TYR203     -0.0009
     69  CD2       -3.5960  -23.3200   24.6490 C.ar  203  TYR203     -0.0009
     70  CE1       -1.0740  -22.6430   23.7080 C.ar  203  TYR203      0.0417
     71  CE2       -3.1620  -21.9940   24.7110 C.ar  203  TYR203      0.0417
     72  CZ        -1.8990  -21.6650   24.2420 C.ar  203  TYR203      0.1957
     73  OH        -1.4570  -20.3610   24.3000 O.3   203  TYR203     -0.2866
     74  N         -1.3020  -25.8860   26.8940 N.am  204  LEU204     -0.1977
     75  CA        -1.1940  -25.3650   28.2500 C.3   204  LEU204      0.1596
     76  C         -1.4820  -23.8730   28.2250 C.2   204  LEU204      0.2287
     77  O         -0.7800  -23.0960   27.5770 O.2   204  LEU204     -0.2864
     78  CB         0.1800  -25.6810   28.8590 C.3   204  LEU204      0.0297
     79  CG         0.3560  -27.0190   29.6000 C.3   204  LEU204      0.0022
     80  CD1       -0.1080  -28.2380   28.7990 C.3   204  LEU204      0.0001
     81  CD2        1.7900  -27.2050   30.0300 C.3   204  LEU204      0.0001
     82  N          1.1350  -21.3910   31.3810 N.3   207  PRO207     -0.2116
     83  CA         2.3320  -21.9650   31.9850 C.3   207  PRO207      0.1372
     84  C          3.4500  -20.9490   32.2160 C.2   207  PRO207      0.2244
     85  O          3.4220  -19.8490   31.6660 O.2   207  PRO207     -0.2868
     86  CB         2.7770  -22.9950   30.9450 C.3   207  PRO207      0.0268
     87  CG         2.3350  -22.4140   29.6420 C.3   207  PRO207      0.0207
     88  CD         1.1660  -21.4970   29.9100 C.3   207  PRO207      0.0892
     89  N          7.7460  -20.5550   31.8900 N.3   209  HIS209     -0.1241
     90  CA         8.7940  -21.1010   31.0400 C.3   209  HIS209      0.1621
     91  C         10.0410  -21.3190   31.8830 C.2   209  HIS209      0.2264
     92  O         10.7970  -20.3850   32.1570 O.2   209  HIS209     -0.2867
     93  CB         9.0490  -20.1840   29.8410 C.3   209  HIS209      0.0745
     94  CG         9.9190  -20.7850   28.7780 C.ar  209  HIS209      0.0817
     95  ND1       10.6580  -20.0170   27.9050 N.ar  209  HIS209     -0.2268
     96  CD2       10.1690  -22.0740   28.4450 C.ar  209  HIS209      0.1154
     97  CE1       11.3260  -20.8040   27.0810 C.ar  209  HIS209      0.1986
     98  NE2       11.0480  -22.0580   27.3880 N.ar  209  HIS209     -0.2212
     99  N          8.4370  -12.4710   28.5430 N.3   233  GLN233     -0.1245
    100  CA         8.6940  -12.5030   27.1130 C.3   233  GLN233      0.1566
    101  C          7.5980  -11.7770   26.3340 C.2   233  GLN233      0.2260
    102  O          6.5200  -11.4860   26.8640 O.2   233  GLN233     -0.2867
    103  CB         8.8750  -13.9520   26.6190 C.3   233  GLN233      0.0367
    104  CG         7.6370  -14.8580   26.7350 C.3   233  GLN233      0.0905
    105  CD         6.6790  -14.7110   25.5650 C.2   233  GLN233      0.2608
    106  OE1        7.0990  -14.6320   24.4120 O.2   233  GLN233     -0.2717
    107  NE2        5.3800  -14.6750   25.8600 N.am  233  GLN233     -0.0878
    108  N          6.0820  -12.1970   22.3020 N.3   235  ARG235     -0.1231
    109  CA         6.0830  -12.8540   20.9870 C.3   235  ARG235      0.1694
    110  C          7.2930  -13.7700   20.7870 C.2   235  ARG235      0.2592
    111  O          8.0110  -13.6620   19.7870 O.2   235  ARG235     -0.2718
    112  CB         5.9960  -11.8140   19.8570 C.3   235  ARG235      0.0321
    113  CG         4.6970  -11.0060   19.8290 C.3   235  ARG235      0.0489
    114  CD         4.7800   -9.8710   18.8170 C.3   235  ARG235      0.2205
    115  NE         3.4560   -9.3500   18.4730 N.pl3 235  ARG235     -0.0865
    116  CZ         3.2320   -8.3210   17.6530 C.cat 235  ARG235      0.5346
    117  NH1        4.2430   -7.6750   17.0730 N.pl3 235  ARG235      0.1354
    118  NH2        1.9840   -7.9320   17.4130 N.pl3 235  ARG235      0.1354
    119  N          7.5130  -14.6610   21.7550 N.am  236  HIS236     -0.1976
    120  CA         8.6170  -15.6360   21.7320 C.3   236  HIS236      0.1656
    121  C         10.0170  -14.9970   21.7700 C.2   236  HIS236      0.2291
    122  O         10.9950  -15.5660   21.2740 O.2   236  HIS236     -0.2864
    123  CB         8.4610  -16.6030   20.5520 C.3   236  HIS236      0.0771
    124  CG         7.0960  -17.2040   20.4540 C.ar  236  HIS236      0.0820
    125  ND1        6.7550  -18.3810   21.0860 N.ar  236  HIS236     -0.2267
    126  CD2        5.9760  -16.7780   19.8220 C.ar  236  HIS236      0.1154
    127  CE1        5.4900  -18.6630   20.8310 C.ar  236  HIS236      0.1986
    128  NE2        4.9940  -17.7050   20.0680 N.ar  236  HIS236     -0.2212
    129  N         14.1460  -27.2880   27.8760 N.3   276  GLU276     -0.1245
    130  CA        13.0560  -26.3210   28.0220 C.3   276  GLU276      0.1567
    131  C         11.7840  -27.0090   28.4760 C.2   276  GLU276      0.2260
    132  O         11.3460  -27.9840   27.8650 O.2   276  GLU276     -0.2867
    133  CB        12.7760  -25.5980   26.7060 C.3   276  GLU276      0.0388
    134  CG        13.7580  -24.5110   26.3290 C.3   276  GLU276      0.1160
    135  CD        13.2010  -23.5970   25.2440 C.2   276  GLU276      0.3649
    136  OE1       11.9590  -23.5690   25.0660 O.co2 276  GLU276     -0.2457
    137  OE2       14.0000  -22.9050   24.5700 O.co2 276  GLU276     -0.2457
    138  N          7.6290  -26.3450   30.0500 N.3   278  LEU278     -0.1245
    139  CA         6.5150  -25.5680   30.5460 C.3   278  LEU278      0.1561
    140  C          6.2310  -26.0690   31.9450 C.2   278  LEU278      0.2260
    141  O          6.2250  -27.2780   32.1980 O.2   278  LEU278     -0.2867
    142  CB         5.2790  -25.7340   29.6670 C.3   278  LEU278      0.0270
    143  CG         5.3940  -25.3430   28.1960 C.3   278  LEU278      0.0019
    144  CD1        4.1510  -25.8200   27.4720 C.3   278  LEU278      0.0001
    145  CD2        5.6090  -23.8380   28.0160 C.3   278  LEU278      0.0001
    146  N          9.2280  -29.5340   26.3380 N.3   287  ILE287     -0.1231
    147  CA         8.8000  -29.1230   24.9930 C.3   287  ILE287      0.1692
    148  C          9.8950  -29.2170   23.9300 C.2   287  ILE287      0.2591
    149  O          9.6160  -29.6000   22.7920 O.2   287  ILE287     -0.2718
    150  CB         8.1120  -27.7290   24.9630 C.3   287  ILE287      0.0266
    151  CG1        8.9640  -26.6710   25.6740 C.3   287  ILE287      0.0019
    152  CG2        6.6810  -27.8340   25.5440 C.3   287  ILE287      0.0020
    153  CD1        8.5020  -25.2520   25.4510 C.3   287  ILE287      0.0001
    154  N         11.1220  -28.8470   24.2950 N.am  288  GLU288     -0.1979
    155  CA        12.2620  -28.9110   23.3850 C.3   288  GLU288      0.1602
    156  C         13.6020  -28.7560   24.0950 C.2   288  GLU288      0.2287
    157  O         13.6610  -28.2750   25.2250 O.2   288  GLU288     -0.2864
    158  CB        12.1400  -27.8920   22.2420 C.3   288  GLU288      0.0415
    159  CG        11.9360  -26.4460   22.6460 C.3   288  GLU288      0.1163
    160  CD        11.8030  -25.5360   21.4310 C.2   288  GLU288      0.3649
    161  OE1       12.8230  -25.3270   20.7310 O.co2 288  GLU288     -0.2457
    162  OE2       10.6810  -25.0340   21.1740 O.co2 288  GLU288     -0.2457
    163  N          3.8720  -16.7620   31.0710 N.3   437  ILE437     -0.1231
    164  CA         4.4110  -16.3350   29.7740 C.3   437  ILE437      0.1692
    165  C          3.5530  -15.2740   29.0680 C.2   437  ILE437      0.2592
    166  O          4.0030  -14.6490   28.1060 O.2   437  ILE437     -0.2718
    167  CB         4.6120  -17.5450   28.8210 C.3   437  ILE437      0.0266
    168  CG1        3.2800  -18.2940   28.6060 C.3   437  ILE437      0.0019
    169  CG2        5.7120  -18.4730   29.3510 C.3   437  ILE437      0.0020
    170  CD1        3.2660  -19.2300   27.4040 C.3   437  ILE437      0.0001
    171  N          2.3270  -15.0720   29.5450 N.am  438  HIS438     -0.1976
    172  CA         1.4100  -14.1150   28.9240 C.3   438  HIS438      0.1656
    173  C          1.3820  -12.7570   29.6240 C.2   438  HIS438      0.2291
    174  O          0.7740  -11.8130   29.1190 O.2   438  HIS438     -0.2864
    175  CB        -0.0100  -14.6910   28.8530 C.3   438  HIS438      0.0771
    176  CG        -0.0990  -15.9940   28.1230 C.ar  438  HIS438      0.0820
    177  ND1        0.3200  -16.1480   26.8170 N.ar  438  HIS438     -0.2267
    178  CD2       -0.5630  -17.2040   28.5150 C.ar  438  HIS438      0.1154
    179  CE1        0.1170  -17.3980   26.4380 C.ar  438  HIS438      0.1986
    180  NE2       -0.4180  -18.0590   27.4500 N.ar  438  HIS438     -0.2212
@<TRIPOS>BOND
     1    19    18    2
     2    29    30    1
     3    18    17    1
     4    30    31    1
     5    30    33    1
     6    32    31    2
     7    17    16    1
     8    17    20    1
     9   117   116    1
    10    33    34    1
    11   118   116    1
    12    20    21    1
    13    40    39    2
    14    34    35    1
    15   116   115    2
    16    37    38    1
    17    39    38    1
    18   115   114    1
    19    21    22    1
    20    10    11    2
    21    10     9    1
    22   114   113    1
    23    25    26    1
    24    38    41    1
    25    36    35    1
    26    27    26    1
    27    27    28    2
    28   111   110    2
    29     9     8    1
    30     9    12    1
    31    13    15    1
    32    13    12    1
    33   126   128   ar
    34   126   124   ar
    35   113   112    1
    36   112   109    1
    37    22    23    1
    38   128   127   ar
    39    41    43    1
    40    41    42    1
    41   124   123    1
    42   124   125   ar
    43   123   120    1
    44    44    45    1
    45    12    14    1
    46   161   160   ar
    47   110   109    1
    48   110   119   am
    49   127   125   ar
    50   109   108    1
    51    23    24    1
    52   162   160   ar
    53   122   121    2
    54   160   159    1
    55   120   119    1
    56   120   121    1
    57    47    46    2
    58    45    48    1
    59    45    46    1
    60    49    48    1
    61    49    50    1
    62   158   159    1
    63   158   155    1
    64    46    53   am
    65    50    51   ar
    66    50    52   ar
    67   149   148    2
    68   155   156    1
    69   155   154    1
    70    68    70   ar
    71    68    67   ar
    72    70    72   ar
    73   148   154   am
    74   148   147    1
    75    53    54    1
    76    66    67    1
    77    66    63    1
    78   156   157    2
    79    67    69   ar
    80    72    73    1
    81    72    71   ar
    82   106   105    2
    83   137   135   ar
    84    69    71   ar
    85    62    63    1
    86    62    55   am
    87    54    55    1
    88    54    57    1
    89    63    64    1
    90   150   147    1
    91   150   152    1
    92   150   151    1
    93   147   146    1
    94    55    56    2
    95   136   135   ar
    96   135   134    1
    97   153   151    1
    98   105   107   am
    99   105   104    1
   100     4     3    2
   101    57    58    1
   102   134   133    1
   103   101   102    2
   104   101   100    1
   105     5     6    1
   106     5     7    1
   107     5     2    1
   108    64    74   am
   109    64    65    2
   110   179   177   ar
   111   179   180   ar
   112   103   104    1
   113   103   100    1
   114   133   130    1
   115     3     2    1
   116   177   176   ar
   117    74    75    1
   118    97    98   ar
   119    97    95   ar
   120   100    99    1
   121    58    59    1
   122     2     1    1
   123    98    96   ar
   124   170   168    1
   125   180   178   ar
   126   144   143    1
   127    77    76    2
   128    59    60    1
   129   132   131    2
   130   129   130    1
   131    95    94   ar
   132   145   143    1
   133   130   131    1
   134   166   165    2
   135   176   178   ar
   136   176   175    1
   137    60    61    1
   138   143   142    1
   139    76    75    1
   140    75    78    1
   141    96    94   ar
   142   168   167    1
   143    94    93    1
   144    80    79    1
   145   167   169    1
   146   167   164    1
   147   175   172    1
   148    78    79    1
   149   172   171    1
   150   172   173    1
   151   165   171   am
   152   165   164    1
   153   174   173    2
   154    79    81    1
   155    87    88    1
   156    87    86    1
   157   142   139    1
   158   164   163    1
   159    93    90    1
   160    88    82    1
   161   138   139    1
   162   139   140    1
   163    86    83    1
   164    90    91    1
   165    90    89    1
   166    82    83    1
   167    85    84    2
   168    91    92    2
   169   140   141    2
   170    83    84    1
