@<TRIPOS>MOLECULE
tmp/2v5aA00.pdb
 170 161 0 0 0
SMALL
GASTEIGER

@<TRIPOS>ATOM
      1  N          4.9230  -33.2290   27.4180 N.3   131  VAL131     -0.1245
      2  CA         3.5240  -32.8390   27.2390 C.3   131  VAL131      0.1561
      3  C          2.7340  -34.0210   26.6560 C.2   131  VAL131      0.2260
      4  O          3.1890  -34.6530   25.6930 O.2   131  VAL131     -0.2867
      5  CB         3.3720  -31.5920   26.3160 C.3   131  VAL131      0.0252
      6  CG1        1.9600  -31.0270   26.4020 C.3   131  VAL131      0.0019
      7  CG2        4.3880  -30.5030   26.6780 C.3   131  VAL131      0.0019
      8  N         -2.4130  -28.1330   20.7290 N.3   157  ILE157     -0.1245
      9  CA        -1.5780  -27.2770   19.8830 C.3   157  ILE157      0.1561
     10  C         -0.9120  -28.1050   18.7800 C.2   157  ILE157      0.2260
     11  O         -0.4760  -29.2320   19.0120 O.2   157  ILE157     -0.2867
     12  CB        -0.5680  -26.4170   20.7170 C.3   157  ILE157      0.0252
     13  CG1        0.1510  -25.3940   19.8240 C.3   157  ILE157      0.0019
     14  CG2        0.4060  -27.3040   21.5040 C.3   157  ILE157      0.0019
     15  CD1        0.9000  -24.3030   20.5840 C.3   157  ILE157      0.0001
     16  N          2.1340  -28.4150   16.0880 N.3   159  LYS159     -0.1245
     17  CA         3.5130  -27.9400   15.9810 C.3   159  LYS159      0.1561
     18  C          4.3020  -28.6230   14.8650 C.2   159  LYS159      0.2260
     19  O          4.1720  -29.8280   14.6370 O.2   159  LYS159     -0.2867
     20  CB         4.2720  -28.1390   17.2990 C.3   159  LYS159      0.0271
     21  CG         3.7130  -27.4320   18.5140 C.3   159  LYS159      0.0035
     22  CD         4.5740  -27.7310   19.7320 C.3   159  LYS159      0.0206
     23  CE         4.2110  -26.8450   20.9060 C.3   159  LYS159      0.1093
     24  NZ         5.0190  -27.1820   22.1160 N.3   159  LYS159     -0.1314
     25  N         10.9810  -24.1110   15.3220 N.3   164  GLY164     -0.1210
     26  CA        11.3640  -23.5540   16.6200 C.3   164  GLY164      0.1956
     27  C         11.0090  -22.0840   16.7520 C.2   164  GLY164      0.2612
     28  O         10.8120  -21.3890   15.7510 O.2   164  GLY164     -0.2717
     29  N         10.9200  -21.6140   17.9940 N.am  165  GLY165     -0.1942
     30  CA        10.6300  -20.2050   18.2810 C.3   165  GLY165      0.2014
     31  C          9.1850  -19.7890   18.0630 C.2   165  GLY165      0.2639
     32  O          8.8990  -18.6070   17.8380 O.2   165  GLY165     -0.2714
     33  N          8.2730  -20.7580   18.1210 N.am  166  GLY166     -0.1954
     34  CA         6.8420  -20.4950   17.9560 C.3   166  GLY166      0.1869
     35  C          6.4110  -20.2530   16.5200 C.2   166  GLY166      0.2309
     36  O          5.2380  -19.9710   16.2590 O.2   166  GLY166     -0.2863
     37  N          2.8120  -22.4970   14.6210 N.3   169  MET169     -0.1245
     38  CA         2.1280  -23.3840   15.5480 C.3   169  MET169      0.1570
     39  C          0.8040  -22.7590   15.9520 C.2   169  MET169      0.2261
     40  O          0.7400  -21.5660   16.2330 O.2   169  MET169     -0.2867
     41  CB         3.0050  -23.7490   16.7600 C.3   169  MET169      0.0387
     42  CG         3.3570  -22.6280   17.7070 C.3   169  MET169      0.0595
     43  SD         4.3600  -23.2430   19.0760 S.3   169  MET169     -0.1393
     44  CE         3.9490  -22.0140   20.3160 C.3   169  MET169      0.0692
     45  N          0.0800  -31.6210   20.7470 N.3   201  GLU201     -0.1231
     46  CA         0.3100  -31.5830   22.1850 C.3   201  GLU201      0.1699
     47  C         -0.8910  -30.9650   22.8620 C.2   201  GLU201      0.2592
     48  O         -1.5610  -30.1170   22.2800 O.2   201  GLU201     -0.2718
     49  CB         1.5550  -30.7470   22.5220 C.3   201  GLU201      0.0402
     50  CG         2.8770  -31.4980   22.3920 C.3   201  GLU201      0.1161
     51  CD         4.0920  -30.6600   22.7760 C.2   201  GLU201      0.3649
     52  OE1        5.2120  -31.2110   22.7510 O.co2 201  GLU201     -0.2457
     53  OE2        3.9430  -29.4630   23.1080 O.co2 201  GLU201     -0.2457
     54  N         -1.1570  -31.3980   24.0910 N.am  202  LYS202     -0.1966
     55  CA        -2.0800  -30.7120   24.9810 C.3   202  LYS202      0.1728
     56  C         -1.6300  -29.2590   25.1110 C.2   202  LYS202      0.2616
     57  O         -0.4740  -28.9950   25.4470 O.2   202  LYS202     -0.2715
     58  CB        -2.0720  -31.3940   26.3610 C.3   202  LYS202      0.0311
     59  CG        -2.9580  -30.7380   27.4230 C.3   202  LYS202      0.0038
     60  CD        -4.4370  -31.0590   27.2190 C.3   202  LYS202      0.0206
     61  CE        -5.2810  -30.5410   28.3720 C.3   202  LYS202      0.1093
     62  NZ        -6.7370  -30.7580   28.1440 N.3   202  LYS202     -0.1314
     63  N         -2.5310  -28.3190   24.8360 N.am  203  TYR203     -0.1960
     64  CA        -2.2020  -26.9150   25.0310 C.3   203  TYR203      0.1771
     65  C         -2.3400  -26.5090   26.5010 C.2   203  TYR203      0.2619
     66  O         -3.4210  -26.6020   27.0880 O.2   203  TYR203     -0.2715
     67  CB        -3.0210  -25.9950   24.1170 C.3   203  TYR203      0.0574
     68  CG        -2.6320  -24.5380   24.2480 C.ar  203  TYR203     -0.0198
     69  CD1       -1.4180  -24.0680   23.7360 C.ar  203  TYR203     -0.0009
     70  CD2       -3.4660  -23.6310   24.9030 C.ar  203  TYR203     -0.0009
     71  CE1       -1.0510  -22.7290   23.8670 C.ar  203  TYR203      0.0417
     72  CE2       -3.1090  -22.2920   25.0380 C.ar  203  TYR203      0.0417
     73  CZ        -1.9020  -21.8490   24.5180 C.ar  203  TYR203      0.1957
     74  OH        -1.5510  -20.5240   24.6480 O.3   203  TYR203     -0.2866
     75  N         -1.2240  -26.0690   27.0820 N.am  204  LEU204     -0.1977
     76  CA        -1.1910  -25.5650   28.4540 C.3   204  LEU204      0.1596
     77  C         -1.4240  -24.0580   28.4420 C.2   204  LEU204      0.2287
     78  O         -0.6740  -23.3120   27.8070 O.2   204  LEU204     -0.2864
     79  CB         0.1410  -25.9230   29.1330 C.3   204  LEU204      0.0297
     80  CG         0.5610  -27.4040   29.1430 C.3   204  LEU204      0.0022
     81  CD1        1.9160  -27.5790   29.8020 C.3   204  LEU204      0.0001
     82  CD2       -0.4740  -28.2880   29.8280 C.3   204  LEU204      0.0001
     83  N          1.3710  -21.5750   31.5600 N.3   207  PRO207     -0.2116
     84  CA         2.5430  -22.1330   32.2170 C.3   207  PRO207      0.1372
     85  C          3.6560  -21.1050   32.4100 C.2   207  PRO207      0.2244
     86  O          3.5650  -19.9740   31.9160 O.2   207  PRO207     -0.2868
     87  CB         2.9950  -23.2260   31.2420 C.3   207  PRO207      0.0268
     88  CG         2.5560  -22.7470   29.8980 C.3   207  PRO207      0.0207
     89  CD         1.3950  -21.7990   30.1010 C.3   207  PRO207      0.0892
     90  N          7.9570  -20.6860   31.8880 N.3   209  HIS209     -0.1241
     91  CA         9.0290  -21.2110   31.0580 C.3   209  HIS209      0.1621
     92  C         10.2560  -21.4200   31.9340 C.2   209  HIS209      0.2264
     93  O         10.9640  -20.4680   32.2820 O.2   209  HIS209     -0.2867
     94  CB         9.3120  -20.2600   29.8890 C.3   209  HIS209      0.0745
     95  CG        10.1450  -20.8580   28.7970 C.ar  209  HIS209      0.0817
     96  ND1       10.9680  -20.0990   27.9920 N.ar  209  HIS209     -0.2268
     97  CD2       10.2830  -22.1370   28.3740 C.ar  209  HIS209      0.1154
     98  CE1       11.5750  -20.8830   27.1210 C.ar  209  HIS209      0.1986
     99  NE2       11.1770  -22.1250   27.3310 N.ar  209  HIS209     -0.2212
    100  N          8.4760  -12.6580   28.7690 N.3   233  GLN233     -0.1245
    101  CA         8.7560  -12.6420   27.3390 C.3   233  GLN233      0.1566
    102  C          7.6780  -11.9140   26.5380 C.2   233  GLN233      0.2260
    103  O          6.5870  -11.6250   27.0430 O.2   233  GLN233     -0.2867
    104  CB         8.9530  -14.0720   26.8110 C.3   233  GLN233      0.0367
    105  CG         7.7290  -14.9870   26.9250 C.3   233  GLN233      0.0905
    106  CD         6.8720  -14.9960   25.6690 C.2   233  GLN233      0.2608
    107  OE1        7.3840  -15.1190   24.5560 O.2   233  GLN233     -0.2717
    108  NE2        5.5570  -14.8910   25.8460 N.am  233  GLN233     -0.0878
    109  N          7.5240  -14.6310   21.7520 N.3   236  HIS236     -0.1241
    110  CA         8.5830  -15.6460   21.6870 C.3   236  HIS236      0.1621
    111  C         10.0090  -15.0550   21.7010 C.2   236  HIS236      0.2264
    112  O         10.9370  -15.6260   21.1270 O.2   236  HIS236     -0.2867
    113  CB         8.3640  -16.6010   20.5020 C.3   236  HIS236      0.0745
    114  CG         6.9750  -17.1570   20.4260 C.ar  236  HIS236      0.0817
    115  ND1        6.5280  -18.1610   21.2570 N.ar  236  HIS236     -0.2268
    116  CD2        5.9320  -16.8420   19.6220 C.ar  236  HIS236      0.1154
    117  CE1        5.2730  -18.4460   20.9640 C.ar  236  HIS236      0.1986
    118  NE2        4.8870  -17.6610   19.9760 N.ar  236  HIS236     -0.2212
    119  N         14.3610  -27.4480   27.9490 N.3   276  GLU276     -0.1245
    120  CA        13.2620  -26.4960   28.1310 C.3   276  GLU276      0.1567
    121  C         11.9810  -27.1970   28.5740 C.2   276  GLU276      0.2260
    122  O         11.6010  -28.2270   28.0160 O.2   276  GLU276     -0.2867
    123  CB        12.9710  -25.7340   26.8380 C.3   276  GLU276      0.0388
    124  CG        14.0440  -24.7560   26.3790 C.3   276  GLU276      0.1160
    125  CD        13.5310  -23.8120   25.2950 C.2   276  GLU276      0.3649
    126  OE1       12.2970  -23.7280   25.0970 O.co2 276  GLU276     -0.2457
    127  OE2       14.3610  -23.1450   24.6410 O.co2 276  GLU276     -0.2457
    128  N          7.7630  -26.5500   30.0650 N.3   278  LEU278     -0.1245
    129  CA         6.6390  -25.7710   30.5490 C.3   278  LEU278      0.1561
    130  C          6.3330  -26.2610   31.9550 C.2   278  LEU278      0.2260
    131  O          6.2170  -27.4610   32.1880 O.2   278  LEU278     -0.2867
    132  CB         5.4220  -25.9270   29.6410 C.3   278  LEU278      0.0270
    133  CG         5.5680  -25.4670   28.1880 C.3   278  LEU278      0.0019
    134  CD1        4.3810  -25.9820   27.3910 C.3   278  LEU278      0.0001
    135  CD2        5.6980  -23.9480   28.0750 C.3   278  LEU278      0.0001
    136  N          9.4030  -29.6320   26.3770 N.3   287  ILE287     -0.1231
    137  CA         8.9930  -29.2060   25.0370 C.3   287  ILE287      0.1692
    138  C         10.1070  -29.3740   23.9920 C.2   287  ILE287      0.2591
    139  O          9.8650  -29.9160   22.9100 O.2   287  ILE287     -0.2718
    140  CB         8.3670  -27.7870   25.0220 C.3   287  ILE287      0.0266
    141  CG1        9.1620  -26.8140   25.8990 C.3   287  ILE287      0.0019
    142  CG2        6.9030  -27.8570   25.4900 C.3   287  ILE287      0.0020
    143  CD1        8.9210  -25.3540   25.5770 C.3   287  ILE287      0.0001
    144  N         11.3180  -28.9270   24.3220 N.am  288  GLU288     -0.1979
    145  CA        12.4560  -29.0120   23.3990 C.3   288  GLU288      0.1602
    146  C         13.8120  -28.8520   24.0870 C.2   288  GLU288      0.2287
    147  O         13.8960  -28.4020   25.2340 O.2   288  GLU288     -0.2864
    148  CB        12.3220  -27.9930   22.2650 C.3   288  GLU288      0.0415
    149  CG        12.3990  -26.5430   22.6990 C.3   288  GLU288      0.1163
    150  CD        11.8860  -25.6140   21.6270 C.2   288  GLU288      0.3649
    151  OE1       12.7060  -24.8650   21.0520 O.co2 288  GLU288     -0.2457
    152  OE2       10.6620  -25.6430   21.3480 O.co2 288  GLU288     -0.2457
    153  N          4.0330  -17.0620   31.2570 N.3   437  ILE437     -0.1231
    154  CA         4.5720  -16.6710   29.9460 C.3   437  ILE437      0.1692
    155  C          3.7860  -15.5530   29.2430 C.2   437  ILE437      0.2592
    156  O          4.2920  -14.9240   28.3100 O.2   437  ILE437     -0.2718
    157  CB         4.7010  -17.8890   28.9920 C.3   437  ILE437      0.0266
    158  CG1        3.3580  -18.6320   28.8660 C.3   437  ILE437      0.0019
    159  CG2        5.8350  -18.8160   29.4530 C.3   437  ILE437      0.0020
    160  CD1        3.2710  -19.5990   27.6880 C.3   437  ILE437      0.0001
    161  N          2.5630  -15.2990   29.6990 N.am  438  HIS438     -0.1976
    162  CA         1.6960  -14.3210   29.0520 C.3   438  HIS438      0.1656
    163  C          1.6730  -12.9590   29.7370 C.2   438  HIS438      0.2291
    164  O          1.0660  -12.0230   29.2170 O.2   438  HIS438     -0.2864
    165  CB         0.2720  -14.8680   28.9310 C.3   438  HIS438      0.0771
    166  CG         0.1920  -16.1940   28.2430 C.ar  438  HIS438      0.0820
    167  ND1        0.6540  -16.3950   26.9600 N.ar  438  HIS438     -0.2267
    168  CD2       -0.3000  -17.3840   28.6580 C.ar  438  HIS438      0.1154
    169  CE1        0.4500  -17.6550   26.6150 C.ar  438  HIS438      0.1986
    170  NE2       -0.1300  -18.2750   27.6270 N.ar  438  HIS438     -0.2212
@<TRIPOS>BOND
     1    37    38    1
     2    19    18    2
     3    18    17    1
     4    25    26    1
     5    38    39    1
     6    38    41    1
     7    28    27    2
     8    39    40    2
     9    17    16    1
    10    17    20    1
    11    36    35    2
    12    35    34    1
    13    26    27    1
    14    27    29   am
    15    41    42    1
    16    20    21    1
    17    42    43    1
    18    32    31    2
    19    34    33    1
    20    29    30    1
    21    31    33   am
    22    31    30    1
    23    21    22    1
    24    10    11    2
    25    10     9    1
    26    43    44    1
    27   116   118   ar
    28   116   114   ar
    29    22    23    1
    30    13    15    1
    31    13    12    1
    32     9    12    1
    33     9     8    1
    34   118   117   ar
    35   114   113    1
    36   114   115   ar
    37   113   110    1
    38    12    14    1
    39    45    46    1
    40    23    24    1
    41   117   115   ar
    42   151   150   ar
    43   112   111    2
    44   152   150   ar
    45   150   149    1
    46   110   111    1
    47   110   109    1
    48    46    49    1
    49    46    47    1
    50   148   149    1
    51   148   145    1
    52    48    47    2
    53    50    49    1
    54    50    51    1
    55    52    51   ar
    56    51    53   ar
    57    47    54   am
    58   139   138    2
    59   145   146    1
    60   145   144    1
    61    69    71   ar
    62    69    68   ar
    63    71    73   ar
    64   138   144   am
    65   138   137    1
    66   146   147    2
    67    54    55    1
    68    67    68    1
    69    67    64    1
    70    68    70   ar
    71    73    74    1
    72    73    72   ar
    73   107   106    2
    74   127   125   ar
    75    63    64    1
    76    63    56   am
    77    70    72   ar
    78    55    56    1
    79    55    58    1
    80   140   137    1
    81   140   142    1
    82   140   141    1
    83    64    65    1
    84   137   136    1
    85   126   125   ar
    86    56    57    2
    87   125   124    1
    88   143   141    1
    89   106   108   am
    90   106   105    1
    91     4     3    2
    92     5     6    1
    93     5     7    1
    94     5     2    1
    95    58    59    1
    96   124   123    1
    97    65    75   am
    98    65    66    2
    99   102   103    2
   100   102   101    1
   101   169   167   ar
   102   169   170   ar
   103     3     2    1
   104   104   105    1
   105   104   101    1
   106   123   120    1
   107   167   166   ar
   108    75    76    1
   109    98    99   ar
   110    98    96   ar
   111    60    59    1
   112    60    61    1
   113     2     1    1
   114    99    97   ar
   115   101   100    1
   116   134   133    1
   117   170   168   ar
   118   160   158    1
   119    78    77    2
   120   119   120    1
   121    96    95   ar
   122   122   121    2
   123   135   133    1
   124   120   121    1
   125    62    61    1
   126   133   132    1
   127   166   168   ar
   128   166   165    1
   129   156   155    2
   130    97    95   ar
   131    77    76    1
   132    76    79    1
   133    95    94    1
   134   158   157    1
   135   165   162    1
   136   157   159    1
   137   157   154    1
   138   162   161    1
   139   162   163    1
   140    79    80    1
   141    80    81    1
   142    80    82    1
   143   164   163    2
   144   155   161   am
   145   155   154    1
   146   132   129    1
   147    94    91    1
   148    88    89    1
   149    88    87    1
   150   154   153    1
   151   128   129    1
   152    89    83    1
   153   129   130    1
   154    91    90    1
   155    91    92    1
   156    87    84    1
   157    83    84    1
   158    86    85    2
   159    92    93    2
   160   130   131    2
   161    84    85    1
