@<TRIPOS>MOLECULE
tmp/2v5hB00.pdb
 121 113 0 0 0
SMALL
GASTEIGER

@<TRIPOS>ATOM
      1  N         36.5000   -6.6850   54.2480 N.3    28  LYS28      -0.1245
      2  CA        36.7840   -5.7500   55.3180 C.3    28  LYS28       0.1561
      3  C         38.2890   -5.6630   55.4670 C.2    28  LYS28       0.2260
      4  O         38.9510   -6.6010   55.9520 O.2    28  LYS28      -0.2867
      5  CB        36.1380   -6.1580   56.6340 C.3    28  LYS28       0.0271
      6  CG        36.1470   -5.0580   57.7280 C.3    28  LYS28       0.0035
      7  CD        37.5510   -4.7650   58.2350 C.3    28  LYS28       0.0206
      8  CE        37.5420   -4.3570   59.6730 C.3    28  LYS28       0.1093
      9  NZ        38.6800   -5.0020   60.3720 N.3    28  LYS28      -0.1314
     10  N         37.7230    0.4400   58.4960 N.3    62  GLY62      -0.1210
     11  CA        37.7200    1.4290   59.5850 C.3    62  GLY62       0.1956
     12  C         39.1150    2.0030   59.6540 C.2    62  GLY62       0.2612
     13  O         39.6460    2.4430   58.6330 O.2    62  GLY62      -0.2717
     14  N         39.7200    1.9690   60.8410 N.am   63  GLY63      -0.1942
     15  CA        41.1200    2.3620   61.0230 C.3    63  GLY63       0.2014
     16  C         41.4520    2.8240   62.4280 C.2    63  GLY63       0.2639
     17  O         41.9020    3.9470   62.6070 O.2    63  GLY63      -0.2714
     18  N         41.2420    1.9570   63.4210 N.am   64  GLY64      -0.1954
     19  CA        41.5080    2.2770   64.8260 C.3    64  GLY64       0.1869
     20  C         42.8480    2.9480   65.1160 C.2    64  GLY64       0.2309
     21  O         42.8750    4.0140   65.7340 O.2    64  GLY64      -0.2863
     22  N         43.1120    6.5630   63.8370 N.3    67  ILE67      -0.1245
     23  CA        42.3450    7.4120   64.7530 C.3    67  ILE67       0.1561
     24  C         43.1460    7.7590   66.0160 C.2    67  ILE67       0.2260
     25  O         43.2510    8.9420   66.3980 O.2    67  ILE67      -0.2867
     26  CB        41.0050    6.7570   65.1570 C.3    67  ILE67       0.0252
     27  CG1       40.1230    6.5110   63.9270 C.3    67  ILE67       0.0019
     28  CG2       40.2790    7.6040   66.1860 C.3    67  ILE67       0.0019
     29  CD1       38.9530    5.5930   64.1840 C.3    67  ILE67       0.0001
     30  N         38.5780    2.6890   75.3870 N.3    80  PHE80      -0.1241
     31  CA        37.8000    1.5390   74.8860 C.3    80  PHE80       0.1605
     32  C         37.0240    0.8320   75.9860 C.2    80  PHE80       0.2264
     33  O         37.5150    0.6740   77.0970 O.2    80  PHE80      -0.2867
     34  CB        38.7080    0.5170   74.1950 C.3    80  PHE80       0.0534
     35  CG        39.2990    1.0040   72.9160 C.ar   80  PHE80      -0.0203
     36  CD1       40.4760    1.7550   72.9150 C.ar   80  PHE80      -0.0042
     37  CD2       38.6750    0.7240   71.7010 C.ar   80  PHE80      -0.0042
     38  CE1       41.0200    2.2150   71.7220 C.ar   80  PHE80      -0.0003
     39  CE2       39.2170    1.1820   70.4910 C.ar   80  PHE80      -0.0003
     40  CZ        40.3860    1.9190   70.4980 C.ar   80  PHE80      -0.0000
     41  N         36.1870   -3.8760   73.5250 N.3    83  GLY83      -0.1210
     42  CA        36.1440   -3.9800   72.0700 C.3    83  GLY83       0.1956
     43  C         35.7870   -2.6730   71.3760 C.2    83  GLY83       0.2612
     44  O         36.4900   -2.2280   70.4660 O.2    83  GLY83      -0.2717
     45  N         34.6980   -2.0520   71.8160 N.am   84  LEU84      -0.1965
     46  CA        34.1820   -0.8400   71.1980 C.3    84  LEU84       0.1728
     47  C         34.8580    0.4320   71.7280 C.2    84  LEU84       0.2616
     48  O         35.1290    0.5550   72.9320 O.2    84  LEU84      -0.2715
     49  CB        32.6730   -0.7630   71.4450 C.3    84  LEU84       0.0311
     50  CG        31.8420   -1.9340   70.9250 C.3    84  LEU84       0.0022
     51  CD1       30.4840   -1.9270   71.5640 C.3    84  LEU84       0.0001
     52  CD2       31.7220   -1.8890   69.4040 C.3    84  LEU84       0.0001
     53  N         35.1150    1.3790   70.8310 N.am   85  ARG85      -0.1977
     54  CA        35.7190    2.6520   71.2250 C.3    85  ARG85       0.1597
     55  C         34.7240    3.5390   71.9630 C.2    85  ARG85       0.2287
     56  O         33.6290    3.7480   71.4760 O.2    85  ARG85      -0.2864
     57  CB        36.2820    3.3790   69.9890 C.3    85  ARG85       0.0334
     58  CG        36.4580    4.8830   70.1610 C.3    85  ARG85       0.0492
     59  CD        37.2000    5.4880   69.0120 C.3    85  ARG85       0.2205
     60  NE        38.6060    5.6200   69.3270 N.pl3  85  ARG85      -0.0865
     61  CZ        39.5870    5.0460   68.6520 C.cat  85  ARG85       0.5346
     62  NH1       39.3320    4.2930   67.6020 N.pl3  85  ARG85       0.1354
     63  NH2       40.8340    5.2350   69.0360 N.pl3  85  ARG85       0.1354
     64  N         38.5390    8.6570   59.3110 N.3    99  LEU99      -0.1245
     65  CA        38.0510    7.5090   58.5490 C.3    99  LEU99       0.1561
     66  C         37.5120    7.8910   57.1890 C.2    99  LEU99       0.2260
     67  O         37.8150    7.2420   56.1810 O.2    99  LEU99      -0.2867
     68  CB        36.9930    6.7330   59.3270 C.3    99  LEU99       0.0270
     69  CG        37.4430    6.0810   60.6290 C.3    99  LEU99       0.0019
     70  CD1       36.3790    5.1140   61.0820 C.3    99  LEU99       0.0001
     71  CD2       38.7820    5.3830   60.4870 C.3    99  LEU99       0.0001
     72  N         28.7020    5.4320   69.5830 N.3   142  VAL142     -0.1245
     73  CA        28.9480    4.1680   68.8970 C.3   142  VAL142      0.1561
     74  C         27.6360    3.7050   68.3040 C.2   142  VAL142      0.2260
     75  O         26.6140    3.6850   68.9680 O.2   142  VAL142     -0.2867
     76  CB        29.5170    3.0920   69.8570 C.3   142  VAL142      0.0252
     77  CG1       29.7140    1.7370   69.1360 C.3   142  VAL142      0.0019
     78  CG2       30.8160    3.5770   70.4750 C.3   142  VAL142      0.0019
     79  N         33.3000    3.1510   57.7520 N.3   167  SER167     -0.1217
     80  CA        32.2980    2.6330   58.6690 C.3   167  SER167      0.1889
     81  C         31.5150    3.6880   59.4600 C.2   167  SER167      0.2288
     82  O         30.7300    3.3370   60.3530 O.2   167  SER167     -0.2866
     83  CB        32.9400    1.6280   59.6240 C.3   167  SER167      0.2089
     84  OG        34.0360    2.2230   60.3080 O.3   167  SER167     -0.2183
     85  N         29.9190    6.2140   65.1500 N.3   178  ASN178     -0.1225
     86  CA        31.0650    5.3600   64.8610 C.3   178  ASN178      0.1785
     87  C         30.6380    3.8910   64.9430 C.2   178  ASN178      0.2597
     88  O         30.3330    3.3930   66.0090 O.2   178  ASN178     -0.2718
     89  CB        32.2000    5.6820   65.8530 C.3   178  ASN178      0.1169
     90  CG        33.4490    4.8380   65.6400 C.2   178  ASN178      0.2627
     91  OD1       33.6610    4.2580   64.5780 O.2   178  ASN178     -0.2716
     92  ND2       34.2950    4.7690   66.6790 N.am  178  ASN178     -0.0877
     93  N         30.6140    3.2100   63.8070 N.am  179  ILE179     -0.1966
     94  CA        30.2550    1.7950   63.7740 C.3   179  ILE179      0.1727
     95  C         31.4910    0.9530   63.5180 C.2   179  ILE179      0.2616
     96  O         32.3500    1.3230   62.7080 O.2   179  ILE179     -0.2715
     97  CB        29.1860    1.4780   62.6850 C.3   179  ILE179      0.0290
     98  CG1       28.0530    2.4990   62.7570 C.3   179  ILE179      0.0022
     99  CG2       28.6550    0.0330   62.8480 C.3   179  ILE179      0.0023
    100  CD1       27.1030    2.4600   61.6200 C.3   179  ILE179      0.0001
    101  N         31.5670   -0.1710   64.2230 N.am  180  ASN180     -0.1958
    102  CA        32.5540   -1.2040   63.9780 C.3   180  ASN180      0.1819
    103  C         32.5390   -1.6370   62.5140 C.2   180  ASN180      0.2621
    104  O         31.4780   -1.9790   61.9740 O.2   180  ASN180     -0.2715
    105  CB        32.2500   -2.4090   64.8730 C.3   180  ASN180      0.1195
    106  CG        33.1840   -3.5620   64.6290 C.2   180  ASN180      0.2630
    107  OD1       32.9730   -4.3630   63.7370 O.2   180  ASN180     -0.2716
    108  ND2       34.2340   -3.6350   65.4100 N.am  180  ASN180     -0.0877
    109  N         33.7080   -1.6490   61.8870 N.am  181  ALA181     -0.1963
    110  CA        33.7950   -1.8910   60.4670 C.3   181  ALA181      0.1728
    111  C         33.4510   -3.3320   60.0500 C.2   181  ALA181      0.2616
    112  O         32.9440   -3.5600   58.9510 O.2   181  ALA181     -0.2715
    113  CB        35.1620   -1.4580   59.9480 C.3   181  ALA181      0.0334
    114  N         33.7070   -4.3030   60.9200 N.am  182  ASP182     -0.1971
    115  CA        33.3030   -5.6770   60.6230 C.3   182  ASP182      0.1709
    116  C         31.8000   -5.7030   60.4370 C.2   182  ASP182      0.2293
    117  O         31.2930   -6.2260   59.4240 O.2   182  ASP182     -0.2864
    118  CB        33.7000   -6.6600   61.7340 C.3   182  ASP182      0.1436
    119  CG        35.1840   -7.0140   61.7160 C.2   182  ASP182      0.3671
    120  OD1       35.8460   -6.8190   60.6710 O.co2 182  ASP182     -0.2456
    121  OD2       35.6980   -7.4960   62.7510 O.co2 182  ASP182     -0.2456
@<TRIPOS>BOND
     1     1     2    1
     2     2     3    1
     3     2     5    1
     4     3     4    2
     5    67    66    2
     6     5     6    1
     7    66    65    1
     8     6     7    1
     9    79    80    1
    10     7     8    1
    11    10    11    1
    12    65    64    1
    13    65    68    1
    14    13    12    2
    15    80    81    1
    16    80    83    1
    17   112   111    2
    18    68    69    1
    19   117   116    2
    20    81    82    2
    21    11    12    1
    22    83    84    1
    23    12    14   am
    24     8     9    1
    25   113   110    1
    26   111   110    1
    27   111   114   am
    28   116   115    1
    29   110   109    1
    30    71    69    1
    31   115   114    1
    32   115   118    1
    33    69    70    1
    34   120   119   ar
    35    14    15    1
    36    15    16    1
    37   100    98    1
    38   119   118    1
    39   119   121   ar
    40   109   103   am
    41   104   103    2
    42    16    17    2
    43    16    18   am
    44   103   102    1
    45    97    98    1
    46    97    99    1
    47    97    94    1
    48    96    95    2
    49    18    19    1
    50    95    94    1
    51    95   101   am
    52   107   106    2
    53    94    93    1
    54    93    87   am
    55    22    23    1
    56    27    29    1
    57    27    26    1
    58   102   101    1
    59   102   105    1
    60    91    90    2
    61   106   105    1
    62   106   108   am
    63    23    26    1
    64    23    24    1
    65    19    20    1
    66    86    87    1
    67    86    85    1
    68    86    89    1
    69    87    88    2
    70    20    21    2
    71    26    28    1
    72    90    89    1
    73    90    92   am
    74    24    25    2
    75    62    61    1
    76    74    73    1
    77    74    75    2
    78    61    63    1
    79    61    60    2
    80    73    72    1
    81    73    76    1
    82    59    60    1
    83    59    58    1
    84    77    76    1
    85    52    50    1
    86    76    78    1
    87    57    58    1
    88    57    54    1
    89    44    43    2
    90    39    40   ar
    91    39    37   ar
    92    40    38   ar
    93    53    54    1
    94    53    47   am
    95    50    49    1
    96    50    51    1
    97    46    49    1
    98    46    47    1
    99    46    45    1
   100    54    55    1
   101    43    45   am
   102    43    42    1
   103    56    55    2
   104    37    35   ar
   105    38    36   ar
   106    47    48    2
   107    42    41    1
   108    36    35   ar
   109    35    34    1
   110    34    31    1
   111    31    30    1
   112    31    32    1
   113    32    33    2
