@<TRIPOS>MOLECULE
tmp/2v5xA00.pdb
 172 172 0 0 0
SMALL
GASTEIGER

@<TRIPOS>ATOM
      1  N         13.7050    8.7270   58.0550 N.3    88  ASP88      -0.1239
      2  CA        15.0430    8.4750   57.5060 C.3    88  ASP88       0.1674
      3  C         16.0960    8.7010   58.5900 C.2    88  ASP88       0.2266
      4  O         17.0300    7.9140   58.7310 O.2    88  ASP88      -0.2867
      5  CB        15.3260    9.3450   56.2740 C.3    88  ASP88       0.1410
      6  CG        15.2420    8.5610   54.9730 C.2    88  ASP88       0.3668
      7  OD1       14.8750    7.3790   54.9980 O.co2  88  ASP88      -0.2456
      8  OD2       15.5150    9.0450   53.8640 O.co2  88  ASP88      -0.2456
      9  N         29.3120   11.5230   56.3760 N.3   128  TRP128     -0.1227
     10  CA        27.8410   11.6990   56.3420 C.3   128  TRP128      0.1737
     11  C         27.4240   12.9200   55.5340 C.2   128  TRP128      0.2595
     12  O         27.1860   13.9930   56.0310 O.2   128  TRP128     -0.2718
     13  CB        27.2600   11.5910   57.7750 C.3   128  TRP128      0.0564
     14  CG        27.6460   10.2090   58.2810 C.ar  128  TRP128      0.0003
     15  CD1       28.6050    9.9250   59.2190 C.ar  128  TRP128      0.0946
     16  CD2       27.2180    8.9290   57.7500 C.ar  128  TRP128      0.0152
     17  NE1       28.7560    8.5620   59.3430 N.ar  128  TRP128     -0.2442
     18  CE2       27.9270    7.9240   58.4490 C.ar  128  TRP128      0.0810
     19  CE3       26.2910    8.5230   56.7630 C.ar  128  TRP128      0.0012
     20  CZ2       27.7160    6.5360   58.2130 C.ar  128  TRP128      0.0191
     21  CZ3       26.0920    7.1380   56.5220 C.ar  128  TRP128      0.0001
     22  CH2       26.7980    6.1740   57.2450 C.ar  128  TRP128      0.0015
     23  N         27.3030   12.7180   54.2500 N.am  129  HIS129     -0.1961
     24  CA        27.4350   13.8090   53.3130 C.3   129  HIS129      0.1787
     25  C         26.1040   14.5440   52.9090 C.2   129  HIS129      0.2620
     26  O         26.1500   15.5550   52.2160 O.2   129  HIS129     -0.2715
     27  CB        28.2630   13.3100   52.1060 C.3   129  HIS129      0.0785
     28  CG        27.6680   12.1280   51.3990 C.ar  129  HIS129      0.0821
     29  ND1       27.7710   11.9640   50.0480 N.ar  129  HIS129     -0.2267
     30  CD2       26.9840   11.0500   51.8480 C.ar  129  HIS129      0.1154
     31  CE1       27.1530   10.8550   49.6830 C.ar  129  HIS129      0.1986
     32  NE2       26.6600   10.2800   50.7580 N.ar  129  HIS129     -0.2212
     33  N         24.9540   14.0520   53.3760 N.am  130  HIS130     -0.1973
     34  CA        23.6540   14.6710   53.0990 C.3   130  HIS130      0.1656
     35  C         23.1670   15.7460   54.0490 C.2   130  HIS130      0.2291
     36  O         22.2680   16.5070   53.6820 O.2   130  HIS130     -0.2864
     37  CB        22.5450   13.6130   53.0160 C.3   130  HIS130      0.0771
     38  CG        22.8230   12.5410   52.0150 C.ar  130  HIS130      0.0820
     39  ND1       23.2080   12.8140   50.7180 N.ar  130  HIS130     -0.2267
     40  CD2       22.8240   11.1940   52.1330 C.ar  130  HIS130      0.1154
     41  CE1       23.4150   11.6780   50.0750 C.ar  130  HIS130      0.1986
     42  NE2       23.1780   10.6840   50.9080 N.ar  130  HIS130     -0.2212
     43  N         19.1730   11.5670   54.9390 N.3   138  GLY138     -0.1210
     44  CA        19.8700   10.4150   54.3960 C.3   138  GLY138      0.1956
     45  C         20.7660    9.6930   55.3890 C.2   138  GLY138      0.2612
     46  O         21.8620    9.2800   55.0740 O.2   138  GLY138     -0.2717
     47  N         20.2390    9.5560   56.6020 N.am  139  PHE139     -0.1962
     48  CA        20.9140    8.9890   57.7760 C.3   139  PHE139      0.1771
     49  C         21.9910    9.8840   58.3760 C.2   139  PHE139      0.2619
     50  O         22.6660    9.4560   59.3010 O.2   139  PHE139     -0.2715
     51  CB        21.4920    7.5830   57.5380 C.3   139  PHE139      0.0574
     52  CG        20.6250    6.6750   56.7250 C.ar  139  PHE139     -0.0200
     53  CD1       21.2110    5.6730   55.9490 C.ar  139  PHE139     -0.0042
     54  CD2       19.2340    6.7860   56.7330 C.ar  139  PHE139     -0.0042
     55  CE1       20.4180    4.8090   55.1580 C.ar  139  PHE139     -0.0003
     56  CE2       18.4250    5.9150   55.9510 C.ar  139  PHE139     -0.0003
     57  CZ        19.0260    4.9310   55.1640 C.ar  139  PHE139     -0.0000
     58  N         22.1060   11.1240   57.8960 N.am  140  CYS140     -0.1968
     59  CA        23.1430   12.0760   58.3460 C.3   140  CYS140      0.1712
     60  C         22.5570   13.1460   59.2720 C.2   140  CYS140      0.2296
     61  O         21.7610   13.9840   58.8480 O.2   140  CYS140     -0.2864
     62  CB        23.8140   12.7550   57.1440 C.3   140  CYS140      0.0983
     63  SG        24.3690   11.5950   55.8620 S.3   140  CYS140     -0.0798
     64  N         30.9800    7.5850   47.1050 N.3   165  ASP165     -0.1239
     65  CA        29.7110    6.9740   47.4960 C.3   165  ASP165      0.1674
     66  C         28.7500    6.7760   46.3080 C.2   165  ASP165      0.2266
     67  O         28.8100    7.4840   45.2950 O.2   165  ASP165     -0.2867
     68  CB        29.0450    7.8650   48.5500 C.3   165  ASP165      0.1410
     69  CG        28.0460    7.1530   49.3880 C.2   165  ASP165      0.3668
     70  OD1       28.3830    6.8780   50.5510 O.co2 165  ASP165     -0.2456
     71  OD2       26.8900    6.8900   48.9880 O.co2 165  ASP165     -0.2456
     72  N         25.6550    7.5220   46.4260 N.3   167  HIS167     -0.1241
     73  CA        24.7510    8.6750   46.4200 C.3   167  HIS167      0.1621
     74  C         25.4830   10.0020   46.1880 C.2   167  HIS167      0.2264
     75  O         26.6140   10.1790   46.6310 O.2   167  HIS167     -0.2867
     76  CB        23.9860    8.7080   47.7440 C.3   167  HIS167      0.0745
     77  CG        23.2080    7.4560   47.9970 C.ar  167  HIS167      0.0817
     78  ND1       23.6920    6.4240   48.7770 N.ar  167  HIS167     -0.2268
     79  CD2       22.0200    7.0310   47.4960 C.ar  167  HIS167      0.1154
     80  CE1       22.8030    5.4430   48.7870 C.ar  167  HIS167      0.1986
     81  NE2       21.7990    5.7710   47.9900 N.ar  167  HIS167     -0.2212
     82  N         25.0640    7.2860   41.2980 N.3   189  LYS189     -0.1245
     83  CA        23.8770    6.8910   40.5680 C.3   189  LYS189      0.1561
     84  C         22.9470    8.0990   40.4770 C.2   189  LYS189      0.2260
     85  O         22.6650    8.7540   41.4790 O.2   189  LYS189     -0.2867
     86  CB        23.1480    5.7290   41.2700 C.3   189  LYS189      0.0271
     87  CG        21.7740    5.3840   40.6500 C.3   189  LYS189      0.0035
     88  CD        21.2730    4.0570   41.1790 C.3   189  LYS189      0.0206
     89  CE        19.9440    3.6140   40.5430 C.3   189  LYS189      0.1093
     90  NZ        19.6550    2.2070   40.9710 N.3   189  LYS189     -0.1314
     91  N         13.9430    9.1160   40.7470 N.3   193  GLY193     -0.1210
     92  CA        13.4600    8.1740   41.7450 C.3   193  GLY193      0.1956
     93  C         14.5310    7.7840   42.7720 C.2   193  GLY193      0.2612
     94  O         14.2040    7.2950   43.8600 O.2   193  GLY193     -0.2717
     95  N         15.8000    8.0040   42.4380 N.am  194  PHE194     -0.1962
     96  CA        16.8930    7.5480   43.2790 C.3   194  PHE194      0.1771
     97  C         17.4490    8.6900   44.0980 C.2   194  PHE194      0.2620
     98  O         17.8260    9.7250   43.5500 O.2   194  PHE194     -0.2715
     99  CB        18.0140    6.9070   42.4500 C.3   194  PHE194      0.0574
    100  CG        18.9960    6.1470   43.2790 C.ar  194  PHE194     -0.0200
    101  CD1       18.6810    4.8960   43.7680 C.ar  194  PHE194     -0.0042
    102  CD2       20.2170    6.6880   43.5970 C.ar  194  PHE194     -0.0042
    103  CE1       19.5840    4.1940   44.5620 C.ar  194  PHE194     -0.0003
    104  CE2       21.1220    5.9890   44.3720 C.ar  194  PHE194     -0.0003
    105  CZ        20.8030    4.7460   44.8550 C.ar  194  PHE194     -0.0000
    106  N         17.4950    8.4680   45.4140 N.am  195  PHE195     -0.1960
    107  CA        17.9260    9.4530   46.4080 C.3   195  PHE195      0.1756
    108  C         19.3560   10.0010   46.1570 C.2   195  PHE195      0.2461
    109  O         20.2520    9.2200   45.8150 O.2   195  PHE195     -0.2730
    110  CB        17.8550    8.8150   47.7990 C.3   195  PHE195      0.0574
    111  CG        18.2230    9.7490   48.9220 C.ar  195  PHE195     -0.0200
    112  CD1       19.5220    9.8050   49.4100 C.ar  195  PHE195     -0.0042
    113  CD2       17.2650   10.5480   49.5100 C.ar  195  PHE195     -0.0042
    114  CE1       19.8660   10.6750   50.4410 C.ar  195  PHE195     -0.0003
    115  CE2       17.6050   11.4200   50.5530 C.ar  195  PHE195     -0.0003
    116  CZ        18.9220   11.4890   51.0040 C.ar  195  PHE195     -0.0000
    117  N         19.5820   11.3160   46.2950 N.am  196  PRO196     -0.2716
    118  CA        18.5700   12.3380   46.6290 C.3   196  PRO196      0.1536
    119  C         17.9640   13.0760   45.4130 C.2   196  PRO196      0.2599
    120  O         17.3490   14.1090   45.5750 O.2   196  PRO196     -0.2715
    121  CB        19.3850   13.3500   47.4600 C.3   196  PRO196      0.0310
    122  CG        20.8300   13.2180   46.8950 C.3   196  PRO196      0.0237
    123  CD        20.9040   11.9390   46.0780 C.3   196  PRO196      0.0939
    124  N         18.1370   12.5710   44.2050 N.am  197  GLY197     -0.1955
    125  CA        17.5010   13.1730   43.0370 C.3   197  GLY197      0.1869
    126  C         18.2490   14.3600   42.4500 C.2   197  GLY197      0.2309
    127  O         17.7590   15.0130   41.5350 O.2   197  GLY197     -0.2863
    128  N         28.7500    1.5480   49.4660 N.3   254  ASP254     -0.1239
    129  CA        27.4770    1.1290   48.8930 C.3   254  ASP254      0.1674
    130  C         27.4970    0.9880   47.3510 C.2   254  ASP254      0.2266
    131  O         26.4680    0.7160   46.7380 O.2   254  ASP254     -0.2867
    132  CB        26.2860    1.9550   49.4220 C.3   254  ASP254      0.1410
    133  CG        26.4920    3.4620   49.3870 C.2   254  ASP254      0.3668
    134  OD1       27.4260    3.9840   48.7280 O.co2 254  ASP254     -0.2456
    135  OD2       25.7040    4.2090   50.0330 O.co2 254  ASP254     -0.2456
    136  N         22.8140   -4.3420   49.3650 N.3   260  PRO260     -0.2102
    137  CA        21.3590   -4.4600   49.1500 C.3   260  PRO260      0.1504
    138  C         20.7360   -3.3570   48.2800 C.2   260  PRO260      0.2576
    139  O         19.6290   -3.5390   47.7340 O.2   260  PRO260     -0.2718
    140  CB        20.7960   -4.4290   50.5650 C.3   260  PRO260      0.0282
    141  CG        21.8640   -3.7640   51.3860 C.3   260  PRO260      0.0208
    142  CD        23.1540   -4.2140   50.7900 C.3   260  PRO260      0.0893
    143  N         21.4560   -2.2430   48.1140 N.am  261  MET261     -0.1966
    144  CA        21.0250   -1.1920   47.1900 C.3   261  MET261      0.1736
    145  C         21.0850   -1.6990   45.7640 C.2   261  MET261      0.2616
    146  O         20.4480   -1.1420   44.8690 O.2   261  MET261     -0.2715
    147  CB        21.8920    0.0610   47.3070 C.3   261  MET261      0.0427
    148  CG        22.0090    0.6190   48.7260 C.3   261  MET261      0.0599
    149  SD        21.1630    2.1190   49.1450 S.3   261  MET261     -0.1393
    150  CE        20.7810    2.7560   47.6440 C.3   261  MET261      0.0692
    151  N         21.9090   -2.7170   45.5530 N.am  262  CYS262     -0.1968
    152  CA        21.9260   -3.4550   44.3080 C.3   262  CYS262      0.1712
    153  C         22.0070   -2.5730   43.0680 C.2   262  CYS262      0.2296
    154  O         21.2520   -2.7490   42.1130 O.2   262  CYS262     -0.2864
    155  CB        20.6850   -4.3350   44.2310 C.3   262  CYS262      0.0983
    156  SG        21.0300   -5.7790   43.2470 S.3   262  CYS262     -0.0798
    157  N         28.2590    5.3680   53.0850 N.3   291  GLY291     -0.1225
    158  CA        27.3170    4.2550   52.9920 C.3   291  GLY291      0.1811
    159  C         28.0040    2.9020   52.9180 C.2   291  GLY291      0.2280
    160  O         29.2190    2.8250   52.7810 O.2   291  GLY291     -0.2866
    161  N         26.0300   -1.2490   53.2700 N.3   293  TYR293     -0.1241
    162  CA        24.9360   -1.8980   54.0060 C.3   293  TYR293      0.1605
    163  C         24.9990   -3.4130   53.9790 C.2   293  TYR293      0.2264
    164  O         24.1700   -4.0630   54.5960 O.2   293  TYR293     -0.2867
    165  CB        23.5950   -1.3590   53.5070 C.3   293  TYR293      0.0534
    166  CG        23.6170    0.1490   53.5590 C.ar  293  TYR293     -0.0201
    167  CD1       23.7090    0.9210   52.4000 C.ar  293  TYR293     -0.0009
    168  CD2       23.6360    0.8070   54.7730 C.ar  293  TYR293     -0.0009
    169  CE1       23.7910    2.3140   52.4740 C.ar  293  TYR293      0.0417
    170  CE2       23.7100    2.1900   54.8500 C.ar  293  TYR293      0.0417
    171  CZ        23.7860    2.9310   53.7140 C.ar  293  TYR293      0.1957
    172  OH        23.8560    4.3010   53.8360 O.3   293  TYR293     -0.2866
@<TRIPOS>BOND
     1    84    83    1
     2    84    85    2
     3    89    90    1
     4    89    88    1
     5    83    86    1
     6    83    82    1
     7    87    88    1
     8    87    86    1
     9    91    92    1
    10   127   126    2
    11    92    93    1
    12   154   153    2
    13    95    93   am
    14    95    96    1
    15   126   125    1
    16    99    96    1
    17    99   100    1
    18    93    94    2
    19   125   124    1
    20   153   152    1
    21   156   155    1
    22    96    97    1
    23   100   102   ar
    24   100   101   ar
    25    98    97    2
    26   102   104   ar
    27   101   103   ar
    28    97   106   am
    29   124   119   am
    30   155   152    1
    31   152   151    1
    32   104   105   ar
    33   103   105   ar
    34   146   145    2
    35    67    66    2
    36   119   120    2
    37   119   118    1
    38   106   107    1
    39   151   145   am
    40   145   144    1
    41   109   108    2
    42   123   117    1
    43   123   122    1
    44   108   117   am
    45   108   107    1
    46    74    73    1
    47    74    75    2
    48   117   118    1
    49    66    65    1
    50   107   110    1
    51    73    72    1
    52    73    76    1
    53   118   121    1
    54   131   130    2
    55   122   121    1
    56    64    65    1
    57   144   147    1
    58   144   143    1
    59   147   148    1
    60   130   129    1
    61    79    81   ar
    62    79    77   ar
    63    65    68    1
    64   150   149    1
    65   139   138    2
    66    76    77    1
    67   110   111    1
    68    81    80   ar
    69    77    78   ar
    70   143   138   am
    71   138   137    1
    72    68    69    1
    73   148   149    1
    74   134   133   ar
    75    78    80   ar
    76   129   132    1
    77   129   128    1
    78   111   112   ar
    79   111   113   ar
    80    71    69   ar
    81   137   136    1
    82   137   140    1
    83   136   142    1
    84   133   132    1
    85   133   135   ar
    86    69    70   ar
    87   112   114   ar
    88   113   115   ar
    89    31    29   ar
    90    31    32   ar
    91    29    28   ar
    92    41    39   ar
    93    41    42   ar
    94   114   116   ar
    95   115   116   ar
    96   140   141    1
    97    39    38   ar
    98    32    30   ar
    99   142   141    1
   100    42    40   ar
   101    28    30   ar
   102    28    27    1
   103    38    40   ar
   104    38    37    1
   105    27    24    1
   106    26    25    2
   107   167   169   ar
   108   167   166   ar
   109   169   171   ar
   110   160   159    2
   111    25    24    1
   112    25    33   am
   113   159   158    1
   114   158   157    1
   115    37    34    1
   116    34    33    1
   117    34    35    1
   118   161   162    1
   119    24    23    1
   120   165   166    1
   121   165   162    1
   122   166   168   ar
   123    36    35    2
   124   171   172    1
   125   171   170   ar
   126     8     6   ar
   127   163   162    1
   128   163   164    2
   129    23    11   am
   130    44    43    1
   131    44    45    1
   132   168   170   ar
   133     6     7   ar
   134     6     5    1
   135    46    45    2
   136    55    57   ar
   137    55    53   ar
   138    57    56   ar
   139    45    47   am
   140    11    12    2
   141    11    10    1
   142    63    62    1
   143    53    52   ar
   144    56    54   ar
   145     5     2    1
   146    10     9    1
   147    10    13    1
   148    21    19   ar
   149    21    22   ar
   150    47    48    1
   151    52    54   ar
   152    52    51    1
   153    19    16   ar
   154    62    59    1
   155    22    20   ar
   156     2     1    1
   157     2     3    1
   158    51    48    1
   159    16    14   ar
   160    16    18   ar
   161    13    14    1
   162    48    49    1
   163    58    59    1
   164    58    49   am
   165    20    18   ar
   166    14    15   ar
   167    59    60    1
   168    49    50    2
   169    18    17   ar
   170     3     4    2
   171    61    60    2
   172    15    17   ar
