@<TRIPOS>MOLECULE
tmp/2v5zA01.pdb
 188 185 0 0 0
SMALL
GASTEIGER

@<TRIPOS>ATOM
      1  N         60.5670  152.9040   22.7210 N.3    58  TYR58      -0.1241
      2  CA        60.9880  153.3490   24.0530 C.3    58  TYR58       0.1605
      3  C         61.4200  152.2320   24.9860 C.2    58  TYR58       0.2264
      4  O         60.8220  151.1540   25.0070 O.2    58  TYR58      -0.2867
      5  CB        59.9020  154.2100   24.7260 C.3    58  TYR58       0.0534
      6  CG        59.5170  155.3760   23.8580 C.ar   58  TYR58      -0.0201
      7  CD1       58.3290  155.3580   23.1250 C.ar   58  TYR58      -0.0009
      8  CD2       60.3810  156.4670   23.7070 C.ar   58  TYR58      -0.0009
      9  CE1       57.9910  156.4090   22.2810 C.ar   58  TYR58       0.0417
     10  CE2       60.0550  157.5230   22.8650 C.ar   58  TYR58       0.0417
     11  CZ        58.8610  157.4880   22.1630 C.ar   58  TYR58       0.1957
     12  OH        58.5470  158.5300   21.3300 O.3    58  TYR58      -0.2866
     13  N         56.0750  170.0170   30.3420 N.3    86  LEU86      -0.1245
     14  CA        55.0520  169.2010   29.6800 C.3    86  LEU86       0.1561
     15  C         53.7870  170.0380   29.5110 C.2    86  LEU86       0.2260
     16  O         53.6330  171.0620   30.1750 O.2    86  LEU86      -0.2867
     17  CB        54.7380  167.9630   30.5280 C.3    86  LEU86       0.0270
     18  CG        55.8000  166.8730   30.7450 C.3    86  LEU86       0.0019
     19  CD1       56.9850  167.3650   31.5810 C.3    86  LEU86       0.0001
     20  CD2       55.1610  165.6550   31.4050 C.3    86  LEU86       0.0001
     21  N         55.5720  164.0090   36.5370 N.3   100  PRO100     -0.2102
     22  CA        54.8840  163.0410   35.6760 C.3   100  PRO100      0.1504
     23  C         53.3770  163.2650   35.4620 C.2   100  PRO100      0.2576
     24  O         52.8710  162.9400   34.3830 O.2   100  PRO100     -0.2718
     25  CB        55.1460  161.6980   36.3710 C.3   100  PRO100      0.0282
     26  CG        55.3960  162.0540   37.7960 C.3   100  PRO100      0.0208
     27  CD        56.0950  163.3790   37.7640 C.3   100  PRO100      0.0893
     28  N         52.6770  163.8060   36.4640 N.am  101  PHE101     -0.1963
     29  CA        51.2160  163.9980   36.4040 C.3   101  PHE101      0.1756
     30  C         50.8330  165.4820   36.3180 C.2   101  PHE101      0.2461
     31  O         51.4290  166.3060   37.0100 O.2   101  PHE101     -0.2730
     32  CB        50.5450  163.4090   37.6550 C.3   101  PHE101      0.0574
     33  CG        50.7070  161.9210   37.8120 C.ar  101  PHE101     -0.0200
     34  CD1       51.7390  161.3970   38.5920 C.ar  101  PHE101     -0.0042
     35  CD2       49.8040  161.0410   37.2200 C.ar  101  PHE101     -0.0042
     36  CE1       51.8840  160.0210   38.7600 C.ar  101  PHE101     -0.0003
     37  CE2       49.9400  159.6600   37.3770 C.ar  101  PHE101     -0.0003
     38  CZ        50.9830  159.1480   38.1510 C.ar  101  PHE101     -0.0000
     39  N         49.8270  165.8320   35.4840 N.am  102  PRO102     -0.2727
     40  CA        49.3280  167.2180   35.4900 C.3   102  PRO102      0.1402
     41  C         48.7650  167.5990   36.8680 C.2   102  PRO102      0.2269
     42  O         48.0080  166.8230   37.4470 O.2   102  PRO102     -0.2865
     43  CB        48.2080  167.2060   34.4410 C.3   102  PRO102      0.0296
     44  CG        48.4400  165.9850   33.6200 C.3   102  PRO102      0.0237
     45  CD        49.1180  164.9900   34.5030 C.3   102  PRO102      0.0939
     46  N         44.4870  157.0250   40.7470 N.3   117  TRP117     -0.1241
     47  CA        45.7910  156.4010   40.5250 C.3   117  TRP117      0.1605
     48  C         46.1300  155.4410   41.6630 C.2   117  TRP117      0.2264
     49  O         46.5820  154.3070   41.4380 O.2   117  TRP117     -0.2867
     50  CB        46.8810  157.4670   40.3730 C.3   117  TRP117      0.0550
     51  CG        46.6550  158.4080   39.2120 C.ar  117  TRP117      0.0003
     52  CD1       46.2410  159.7060   39.2790 C.ar  117  TRP117      0.0946
     53  CD2       46.8260  158.1140   37.8160 C.ar  117  TRP117      0.0152
     54  NE1       46.1410  160.2400   38.0180 N.ar  117  TRP117     -0.2442
     55  CE2       46.4950  159.2860   37.0990 C.ar  117  TRP117      0.0810
     56  CE3       47.2250  156.9750   37.1030 C.ar  117  TRP117      0.0012
     57  CZ2       46.5560  159.3570   35.7000 C.ar  117  TRP117      0.0191
     58  CZ3       47.2880  157.0450   35.7120 C.ar  117  TRP117      0.0001
     59  CH2       46.9560  158.2300   35.0250 C.ar  117  TRP117      0.0015
     60  N         40.7390  161.8780   32.1010 N.3   162  LEU162     -0.1245
     61  CA        42.1720  161.5750   32.0940 C.3   162  LEU162      0.1561
     62  C         42.4060  160.0700   32.2060 C.2   162  LEU162      0.2260
     63  O         43.2850  159.5210   31.5380 O.2   162  LEU162     -0.2867
     64  CB        42.9150  162.3320   33.2060 C.3   162  LEU162      0.0270
     65  CG        44.4470  162.1990   33.1930 C.3   162  LEU162      0.0019
     66  CD1       45.0590  162.7780   31.9110 C.3   162  LEU162      0.0001
     67  CD2       45.0510  162.8550   34.4260 C.3   162  LEU162      0.0001
     68  N         41.8580  158.5090   28.7940 N.3   165  LEU165     -0.1231
     69  CA        43.0300  158.7420   27.9550 C.3   165  LEU165      0.1693
     70  C         44.1540  157.7680   28.3340 C.2   165  LEU165      0.2592
     71  O         44.7830  157.1620   27.4680 O.2   165  LEU165     -0.2718
     72  CB        43.4900  160.2030   28.0910 C.3   165  LEU165      0.0284
     73  CG        44.6570  160.7010   27.2200 C.3   165  LEU165      0.0019
     74  CD1       44.5400  162.2000   26.9970 C.3   165  LEU165      0.0001
     75  CD2       46.0200  160.3550   27.8050 C.3   165  LEU165      0.0001
     76  N         44.3890  157.6260   29.6400 N.am  166  PHE166     -0.1976
     77  CA        45.3750  156.6760   30.1820 C.3   166  PHE166      0.1639
     78  C         45.1740  155.2530   29.6450 C.2   166  PHE166      0.2290
     79  O         46.1270  154.6270   29.1790 O.2   166  PHE166     -0.2864
     80  CB        45.3270  156.7050   31.7130 C.3   166  PHE166      0.0560
     81  CG        46.1400  155.6310   32.3920 C.ar  166  PHE166     -0.0200
     82  CD1       47.5240  155.5790   32.2560 C.ar  166  PHE166     -0.0042
     83  CD2       45.5120  154.7000   33.2170 C.ar  166  PHE166     -0.0042
     84  CE1       48.2750  154.5910   32.9130 C.ar  166  PHE166     -0.0003
     85  CE2       46.2510  153.7120   33.8830 C.ar  166  PHE166     -0.0003
     86  CZ        47.6340  153.6540   33.7250 C.ar  166  PHE166     -0.0000
     87  N         45.8600  155.1050   25.8030 N.3   169  LEU169     -0.1231
     88  CA        47.2850  155.2520   25.5050 C.3   169  LEU169      0.1693
     89  C         48.1090  154.0200   25.8790 C.2   169  LEU169      0.2592
     90  O         49.0740  153.6800   25.1820 O.2   169  LEU169     -0.2718
     91  CB        47.8300  156.4910   26.2210 C.3   169  LEU169      0.0284
     92  CG        49.3010  156.8740   26.0750 C.3   169  LEU169      0.0019
     93  CD1       49.7130  156.9910   24.6010 C.3   169  LEU169      0.0001
     94  CD2       49.5200  158.1910   26.8020 C.3   169  LEU169      0.0001
     95  N         47.7380  153.3710   26.9860 N.am  170  CYS170     -0.1970
     96  CA        48.4380  152.1850   27.4680 C.3   170  CYS170      0.1712
     97  C         48.2330  150.9830   26.5560 C.2   170  CYS170      0.2296
     98  O         49.1820  150.2490   26.2720 O.2   170  CYS170     -0.2864
     99  CB        47.9670  151.8100   28.8760 C.3   170  CYS170      0.0983
    100  SG        48.7050  152.7610   30.2050 S.3   170  CYS170     -0.0798
    101  N         54.7610  153.3240   34.5640 N.3   196  ILE196     -0.1231
    102  CA        54.2680  153.1820   33.1910 C.3   196  ILE196      0.1692
    103  C         54.0600  154.5270   32.4720 C.2   196  ILE196      0.2591
    104  O         54.2760  154.6240   31.2620 O.2   196  ILE196     -0.2718
    105  CB        53.0040  152.2600   33.1220 C.3   196  ILE196      0.0266
    106  CG1       52.9060  151.5530   31.7640 C.3   196  ILE196      0.0019
    107  CG2       51.7090  153.0220   33.4970 C.3   196  ILE196      0.0020
    108  CD1       51.7870  150.5000   31.6920 C.3   196  ILE196      0.0001
    109  N         53.6650  155.5620   33.2130 N.am  197  ILE197     -0.1980
    110  CA        53.3610  156.8670   32.5980 C.3   197  ILE197      0.1595
    111  C         54.5390  157.8300   32.5190 C.2   197  ILE197      0.2287
    112  O         54.4390  158.8750   31.8690 O.2   197  ILE197     -0.2864
    113  CB        52.1530  157.5890   33.2820 C.3   197  ILE197      0.0276
    114  CG1       52.5050  158.0740   34.6960 C.3   197  ILE197      0.0022
    115  CG2       50.9170  156.7050   33.2820 C.3   197  ILE197      0.0022
    116  CD1       52.4980  159.5730   34.8410 C.3   197  ILE197      0.0001
    117  N         58.8940  154.2070   31.6590 N.3   203  GLY203     -0.1210
    118  CA        58.9200  153.4490   30.4070 C.3   203  GLY203      0.1956
    119  C         59.3190  154.2270   29.1640 C.2   203  GLY203      0.2611
    120  O         59.7680  153.6390   28.1800 O.2   203  GLY203     -0.2717
    121  N         59.1610  155.5500   29.1950 N.am  204  GLN204     -0.1979
    122  CA        59.4800  156.3700   28.0190 C.3   204  GLN204      0.1601
    123  C         60.8130  157.1310   28.1340 C.2   204  GLN204      0.2287
    124  O         61.0650  158.0640   27.3670 O.2   204  GLN204     -0.2864
    125  CB        58.3220  157.3340   27.7010 C.3   204  GLN204      0.0394
    126  CG        57.0680  156.6600   27.1130 C.3   204  GLN204      0.0908
    127  CD        56.3870  155.7000   28.0730 C.2   204  GLN204      0.2608
    128  OE1       56.3230  154.4960   27.8160 O.2   204  GLN204     -0.2717
    129  NE2       55.8880  156.2240   29.1900 N.am  204  GLN204     -0.0878
    130  N         49.7550  166.0860   26.4060 N.3   314  ILE314     -0.1245
    131  CA        48.6820  165.1770   26.8050 C.3   314  ILE314      0.1561
    132  C         47.3810  165.8870   26.4170 C.2   314  ILE314      0.2260
    133  O         47.0220  166.9010   27.0100 O.2   314  ILE314     -0.2867
    134  CB        48.7290  164.8720   28.3250 C.3   314  ILE314      0.0252
    135  CG1       50.0750  164.2390   28.7010 C.3   314  ILE314      0.0019
    136  CG2       47.5700  163.9480   28.7370 C.3   314  ILE314      0.0019
    137  CD1       50.5240  164.5230   30.1250 C.3   314  ILE314      0.0001
    138  N         48.4940  161.9930   22.5880 N.3   324  TYR324     -0.1241
    139  CA        49.7940  162.0040   23.2740 C.3   324  TYR324      0.1605
    140  C         50.9480  162.1730   22.3000 C.2   324  TYR324      0.2264
    141  O         50.9870  161.5080   21.2580 O.2   324  TYR324     -0.2867
    142  CB        49.9890  160.7070   24.0650 C.3   324  TYR324      0.0534
    143  CG        51.1580  160.7110   25.0380 C.ar  324  TYR324     -0.0201
    144  CD1       51.1110  161.4670   26.2130 C.ar  324  TYR324     -0.0009
    145  CD2       52.2880  159.9270   24.8040 C.ar  324  TYR324     -0.0009
    146  CE1       52.1660  161.4650   27.1170 C.ar  324  TYR324      0.0417
    147  CE2       53.3590  159.9180   25.7090 C.ar  324  TYR324      0.0417
    148  CZ        53.2800  160.6870   26.8650 C.ar  324  TYR324      0.1957
    149  OH        54.3240  160.6750   27.7610 O.3   324  TYR324     -0.2866
    150  N         50.6290  159.6130   18.7290 N.3   341  PHE341     -0.1241
    151  CA        49.8180  158.4090   18.5150 C.3   341  PHE341      0.1605
    152  C         48.3580  158.7600   18.2240 C.2   341  PHE341      0.2264
    153  O         47.7450  159.5350   18.9610 O.2   341  PHE341     -0.2867
    154  CB        49.8220  157.5180   19.7620 C.3   341  PHE341      0.0534
    155  CG        51.1390  156.8570   20.0600 C.ar  341  PHE341     -0.0203
    156  CD1       51.7550  157.0520   21.2960 C.ar  341  PHE341     -0.0042
    157  CD2       51.7510  156.0190   19.1330 C.ar  341  PHE341     -0.0042
    158  CE1       52.9750  156.4290   21.5980 C.ar  341  PHE341     -0.0003
    159  CE2       52.9720  155.3900   19.4250 C.ar  341  PHE341     -0.0003
    160  CZ        53.5820  155.5990   20.6550 C.ar  341  PHE341     -0.0000
    161  N         49.7540  148.1940   20.2810 N.3   396  TYR396     -0.1241
    162  CA        51.0930  147.6320   20.5390 C.3   396  TYR396      0.1605
    163  C         51.0370  146.1400   20.8070 C.2   396  TYR396      0.2264
    164  O         52.0030  145.4050   20.5420 O.2   396  TYR396     -0.2867
    165  CB        51.7410  148.2810   21.7740 C.3   396  TYR396      0.0534
    166  CG        51.3830  149.7280   22.0350 C.ar  396  TYR396     -0.0201
    167  CD1       51.6390  150.7190   21.0850 C.ar  396  TYR396     -0.0009
    168  CD2       50.8060  150.1060   23.2440 C.ar  396  TYR396     -0.0009
    169  CE1       51.3120  152.0550   21.3270 C.ar  396  TYR396      0.0417
    170  CE2       50.4720  151.4430   23.4970 C.ar  396  TYR396      0.0417
    171  CZ        50.7310  152.4080   22.5310 C.ar  396  TYR396      0.1957
    172  OH        50.4050  153.7300   22.7710 O.3   396  TYR396     -0.2866
    173  N         53.8770  143.0900   26.6390 N.3   432  GLY432     -0.1210
    174  CA        53.3950  144.1170   25.7110 C.3   432  GLY432      0.1956
    175  C         54.5180  144.9700   25.1330 C.2   432  GLY432      0.2611
    176  O         54.3220  145.6810   24.1340 O.2   432  GLY432     -0.2717
    177  N         55.6990  144.8630   25.7480 N.am  433  TYR433     -0.1976
    178  CA        56.8670  145.6860   25.4210 C.3   433  TYR433      0.1639
    179  C         58.0000  144.8480   24.8190 C.2   433  TYR433      0.2290
    180  O         57.9720  143.6140   24.8650 O.2   433  TYR433     -0.2864
    181  CB        57.3920  146.3710   26.6930 C.3   433  TYR433      0.0560
    182  CG        56.4820  147.4350   27.2770 C.ar  433  TYR433     -0.0198
    183  CD1       55.2460  147.1040   27.8400 C.ar  433  TYR433     -0.0009
    184  CD2       56.8770  148.7760   27.2920 C.ar  433  TYR433     -0.0009
    185  CE1       54.4130  148.0910   28.3810 C.ar  433  TYR433      0.0417
    186  CE2       56.0570  149.7620   27.8280 C.ar  433  TYR433      0.0417
    187  CZ        54.8310  149.4130   28.3700 C.ar  433  TYR433      0.1957
    188  OH        54.0230  150.3960   28.9020 O.3   433  TYR433     -0.2866
@<TRIPOS>BOND
     1   152   151    1
     2   152   153    2
     3   151   150    1
     4   151   154    1
     5   157   159   ar
     6   157   155   ar
     7   159   160   ar
     8   154   155    1
     9   155   156   ar
    10   161   162    1
    11   162   163    1
    12   162   165    1
    13   164   163    2
    14   160   158   ar
    15   167   169   ar
    16   167   166   ar
    17   141   140    2
    18   156   158   ar
    19   169   171   ar
    20    12    11    1
    21   165   166    1
    22   166   168   ar
    23    11     9   ar
    24    11    10   ar
    25     9     7   ar
    26   140   139    1
    27   171   172    1
    28   171   170   ar
    29   138   139    1
    30     1     2    1
    31    10     8   ar
    32     7     6   ar
    33   168   170   ar
    34   139   142    1
    35     8     6   ar
    36     6     5    1
    37     2     5    1
    38     2     3    1
    39   142   143    1
    40   176   175    2
    41    93    92    1
    42   145   143   ar
    43   145   147   ar
    44   179   180    2
    45   179   178    1
    46     3     4    2
    47   143   144   ar
    48   175   174    1
    49   175   177   am
    50    90    89    2
    51   178   177    1
    52   178   181    1
    53    88    87    1
    54    88    89    1
    55    88    91    1
    56   147   148   ar
    57   174   173    1
    58    89    95   am
    59    92    91    1
    60    92    94    1
    61   144   146   ar
    62    98    97    2
    63   130   131    1
    64   132   131    1
    65   132   133    2
    66    97    96    1
    67   181   182    1
    68   131   134    1
    69   148   146   ar
    70   148   149    1
    71    95    96    1
    72    74    73    1
    73   126   125    1
    74   126   127    1
    75    73    75    1
    76    73    72    1
    77   182   184   ar
    78   182   183   ar
    79   184   186   ar
    80   124   123    2
    81    96    99    1
    82    71    70    2
    83   125   122    1
    84   128   127    2
    85   186   187   ar
    86   183   185   ar
    87    69    72    1
    88    69    70    1
    89    69    68    1
    90   122   123    1
    91   122   121    1
    92   127   129   am
    93   120   119    2
    94   134   135    1
    95   134   136    1
    96    70    76   am
    97   187   185   ar
    98   187   188    1
    99   135   137    1
   100    99   100    1
   101   119   121   am
   102   119   118    1
   103    79    78    2
   104    15    14    1
   105    15    16    2
   106    76    77    1
   107    78    77    1
   108    14    13    1
   109    14    17    1
   110    77    80    1
   111   118   117    1
   112    17    18    1
   113    18    20    1
   114    18    19    1
   115   104   103    2
   116    63    62    2
   117   108   106    1
   118    80    81    1
   119   106   105    1
   120   112   111    2
   121    66    65    1
   122    61    60    1
   123    61    62    1
   124    61    64    1
   125    82    81   ar
   126    82    84   ar
   127    81    83   ar
   128   103   102    1
   129   103   109   am
   130   111   110    1
   131   110   109    1
   132   110   113    1
   133    84    86   ar
   134   105   102    1
   135   105   107    1
   136   102   101    1
   137    65    64    1
   138    65    67    1
   139    83    85   ar
   140   113   115    1
   141   113   114    1
   142    44    43    1
   143    44    45    1
   144    86    85   ar
   145    24    23    2
   146    43    40    1
   147    45    39    1
   148   114   116    1
   149    59    57   ar
   150    59    58   ar
   151    23    22    1
   152    23    28   am
   153    39    40    1
   154    39    30   am
   155    40    41    1
   156    22    25    1
   157    22    21    1
   158    57    55   ar
   159    58    56   ar
   160    30    29    1
   161    30    31    2
   162    25    26    1
   163    29    28    1
   164    29    32    1
   165    21    27    1
   166    41    42    2
   167    55    53   ar
   168    55    54   ar
   169    56    53   ar
   170    35    37   ar
   171    35    33   ar
   172    37    38   ar
   173    32    33    1
   174    27    26    1
   175    33    34   ar
   176    53    51   ar
   177    54    52   ar
   178    38    36   ar
   179    34    36   ar
   180    51    52   ar
   181    51    50    1
   182    50    47    1
   183    47    46    1
   184    47    48    1
   185    49    48    2
