@<TRIPOS>MOLECULE
tmp/2v60B01.pdb
 195 190 0 0 0
SMALL
GASTEIGER

@<TRIPOS>ATOM
      1  N         16.6920  122.6720   14.9890 N.3    58  TYR58      -0.1241
      2  CA        15.3370  123.2030   15.0160 C.3    58  TYR58       0.1605
      3  C         15.0550  124.1940   13.9130 C.2    58  TYR58       0.2264
      4  O         15.9090  124.9930   13.5410 O.2    58  TYR58      -0.2867
      5  CB        14.9880  123.8510   16.3820 C.3    58  TYR58       0.0534
      6  CG        15.2180  122.8790   17.5090 C.ar   58  TYR58      -0.0201
      7  CD1       16.3210  123.0100   18.3550 C.ar   58  TYR58      -0.0009
      8  CD2       14.3680  121.7880   17.6900 C.ar   58  TYR58      -0.0009
      9  CE1       16.5630  122.0830   19.3490 C.ar   58  TYR58       0.0417
     10  CE2       14.6050  120.8360   18.7130 C.ar   58  TYR58       0.0417
     11  CZ        15.7040  121.0000   19.5170 C.ar   58  TYR58       0.1957
     12  OH        15.9430  120.0840   20.5130 O.3    58  TYR58      -0.2866
     13  N          5.4020  122.3100   30.6250 N.3    86  LEU86      -0.1245
     14  CA         6.8130  122.6990   30.7810 C.3    86  LEU86       0.1561
     15  C          7.1330  122.7640   32.3050 C.2    86  LEU86       0.2260
     16  O          6.2070  122.8590   33.1180 O.2    86  LEU86      -0.2867
     17  CB         7.0660  124.0570   30.0930 C.3    86  LEU86       0.0270
     18  CG         6.8980  124.2720   28.5600 C.3    86  LEU86       0.0019
     19  CD1        5.4220  124.1210   28.1330 C.3    86  LEU86       0.0001
     20  CD2        7.4450  125.6460   28.0890 C.3    86  LEU86       0.0001
     21  N          4.2890  129.9330   26.6780 N.3   100  PRO100     -0.2102
     22  CA         5.7390  130.0430   26.4980 C.3   100  PRO100      0.1504
     23  C          6.5700  130.5420   27.7080 C.2   100  PRO100      0.2576
     24  O          7.7300  130.1430   27.8400 O.2   100  PRO100     -0.2718
     25  CB         5.8660  131.0030   25.3030 C.3   100  PRO100      0.0282
     26  CG         4.6330  131.8070   25.3060 C.3   100  PRO100      0.0208
     27  CD         3.5480  130.9110   25.8530 C.3   100  PRO100      0.0893
     28  N          6.0020  131.4110   28.5520 N.am  101  PHE101     -0.1963
     29  CA         6.7600  132.0380   29.6570 C.3   101  PHE101      0.1756
     30  C          6.3820  131.4550   31.0040 C.2   101  PHE101      0.2461
     31  O          5.2110  131.2340   31.2480 O.2   101  PHE101     -0.2730
     32  CB         6.4940  133.5450   29.7360 C.3   101  PHE101      0.0574
     33  CG         7.0210  134.3200   28.5850 C.ar  101  PHE101     -0.0200
     34  CD1        6.2010  134.6000   27.4860 C.ar  101  PHE101     -0.0042
     35  CD2        8.3190  134.8270   28.6070 C.ar  101  PHE101     -0.0042
     36  CE1        6.6990  135.3300   26.3870 C.ar  101  PHE101     -0.0003
     37  CE2        8.8110  135.5840   27.5330 C.ar  101  PHE101     -0.0003
     38  CZ         8.0020  135.8400   26.4240 C.ar  101  PHE101     -0.0000
     39  N          7.3790  131.2100   31.8870 N.am  102  PRO102     -0.2727
     40  CA         7.0770  130.6790   33.2250 C.3   102  PRO102      0.1402
     41  C          6.2960  131.7090   34.0520 C.2   102  PRO102      0.2269
     42  O          6.6150  132.8860   34.0050 O.2   102  PRO102     -0.2865
     43  CB         8.4650  130.4110   33.8340 C.3   102  PRO102      0.0296
     44  CG         9.4590  130.5440   32.6840 C.3   102  PRO102      0.0237
     45  CD         8.8250  131.4240   31.6650 C.3   102  PRO102      0.0939
     46  N         10.7280  141.6730   29.4760 N.3   117  TRP117     -0.1241
     47  CA        10.4650  141.1280   28.1560 C.3   117  TRP117      0.1605
     48  C          9.9430  142.2310   27.2330 C.2   117  TRP117      0.2264
     49  O         10.3630  142.3780   26.0660 O.2   117  TRP117     -0.2867
     50  CB         9.4370  139.9990   28.2670 C.3   117  TRP117      0.0550
     51  CG         9.9330  138.7990   29.0190 C.ar  117  TRP117      0.0003
     52  CD1        9.5140  138.3570   30.2390 C.ar  117  TRP117      0.0946
     53  CD2       10.9520  137.8930   28.5870 C.ar  117  TRP117      0.0152
     54  NE1       10.2040  137.2210   30.5980 N.ar  117  TRP117     -0.2442
     55  CE2       11.0960  136.9140   29.5990 C.ar  117  TRP117      0.0810
     56  CE3       11.7500  137.8070   27.4330 C.ar  117  TRP117      0.0012
     57  CZ2       12.0040  135.8460   29.4890 C.ar  117  TRP117      0.0191
     58  CZ3       12.6410  136.7480   27.3190 C.ar  117  TRP117      0.0001
     59  CH2       12.7590  135.7770   28.3470 C.ar  117  TRP117      0.0015
     60  N         16.3250  135.0200   35.4410 N.3   162  LEU162     -0.1245
     61  CA        15.6850  134.5260   34.2170 C.3   162  LEU162      0.1561
     62  C         16.1750  135.2200   32.9460 C.2   162  LEU162      0.2260
     63  O         16.3820  134.5780   31.9200 O.2   162  LEU162     -0.2867
     64  CB        14.1630  134.6340   34.2950 C.3   162  LEU162      0.0270
     65  CG        13.3900  133.9070   33.1810 C.3   162  LEU162      0.0019
     66  CD1       13.7010  132.3730   33.1650 C.3   162  LEU162      0.0001
     67  CD2       11.8960  134.1520   33.4010 C.3   162  LEU162      0.0001
     68  N         19.5590  133.7280   32.1600 N.3   165  LEU165     -0.1231
     69  CA        19.3940  132.4450   31.5190 C.3   165  LEU165      0.1693
     70  C         19.0100  132.6650   30.0410 C.2   165  LEU165      0.2592
     71  O         19.5780  132.0190   29.1830 O.2   165  LEU165     -0.2718
     72  CB        18.3620  131.5830   32.2960 C.3   165  LEU165      0.0284
     73  CG        18.1330  130.0820   32.0090 C.3   165  LEU165      0.0019
     74  CD1       17.3130  129.5010   33.1620 C.3   165  LEU165      0.0001
     75  CD2       17.3790  129.8370   30.7000 C.3   165  LEU165      0.0001
     76  N         18.0490  133.5700   29.7600 N.am  166  PHE166     -0.1976
     77  CA        17.6330  133.9370   28.4030 C.3   166  PHE166      0.1639
     78  C         18.8300  134.2710   27.5220 C.2   166  PHE166      0.2290
     79  O         18.9540  133.7440   26.4140 O.2   166  PHE166     -0.2864
     80  CB        16.6070  135.1030   28.4300 C.3   166  PHE166      0.0560
     81  CG        16.1980  135.6510   27.0530 C.ar  166  PHE166     -0.0200
     82  CD1       15.5620  134.8440   26.0990 C.ar  166  PHE166     -0.0042
     83  CD2       16.3870  137.0110   26.7420 C.ar  166  PHE166     -0.0042
     84  CE1       15.1490  135.3870   24.8380 C.ar  166  PHE166     -0.0003
     85  CE2       15.9870  137.5540   25.4670 C.ar  166  PHE166     -0.0003
     86  CZ        15.3660  136.7210   24.5350 C.ar  166  PHE166     -0.0000
     87  N         21.1590  131.1760   26.8800 N.3   169  LEU169     -0.1231
     88  CA        20.5190  130.1810   25.9770 C.3   169  LEU169      0.1693
     89  C         20.4800  130.6550   24.5200 C.2   169  LEU169      0.2592
     90  O         20.7610  129.8710   23.6150 O.2   169  LEU169     -0.2718
     91  CB        19.0970  129.8840   26.4280 C.3   169  LEU169      0.0284
     92  CG        18.2900  128.7910   25.7060 C.3   169  LEU169      0.0019
     93  CD1       19.0250  127.4430   25.6330 C.3   169  LEU169      0.0001
     94  CD2       16.9980  128.6610   26.4440 C.3   169  LEU169      0.0001
     95  N         20.0720  131.9000   24.3090 N.am  170  CYS170     -0.1970
     96  CA        20.0570  132.5120   22.9640 C.3   170  CYS170      0.1712
     97  C         21.4030  132.5970   22.2600 C.2   170  CYS170      0.2296
     98  O         21.4810  132.2890   21.0690 O.2   170  CYS170     -0.2864
     99  CB        19.4620  133.9360   22.9790 C.3   170  CYS170      0.0983
    100  SG        17.7170  133.9670   23.2330 S.3   170  CYS170     -0.0798
    101  N         11.4130  133.8660   19.5120 N.3   196  ILE196     -0.1231
    102  CA        12.7130  133.2400   19.7380 C.3   196  ILE196      0.1692
    103  C         12.6750  132.1220   20.8150 C.2   196  ILE196      0.2591
    104  O         13.3220  131.0670   20.6550 O.2   196  ILE196     -0.2718
    105  CB        13.8740  134.3480   19.9260 C.3   196  ILE196      0.0266
    106  CG1       15.2050  133.8880   19.3180 C.3   196  ILE196      0.0019
    107  CG2       14.0160  134.8000   21.3980 C.3   196  ILE196      0.0020
    108  CD1       16.4610  134.8600   19.5720 C.3   196  ILE196      0.0001
    109  N         11.8650  132.3080   21.8570 N.am  197  ILE197     -0.1980
    110  CA        11.8290  131.3660   22.9960 C.3   197  ILE197      0.1595
    111  C         10.7740  130.2760   22.8510 C.2   197  ILE197      0.2287
    112  O         10.7640  129.3320   23.6190 O.2   197  ILE197     -0.2864
    113  CB        11.5850  132.0920   24.3720 C.3   197  ILE197      0.0276
    114  CG1       10.1280  132.6080   24.4720 C.3   197  ILE197      0.0022
    115  CG2       12.5830  133.2030   24.5610 C.3   197  ILE197      0.0022
    116  CD1        9.6230  132.8700   25.8640 C.3   197  ILE197      0.0001
    117  N         11.8270  126.7900   17.9220 N.3   204  GLN204     -0.1245
    118  CA        12.0500  125.3770   18.2710 C.3   204  GLN204      0.1566
    119  C         10.8640  124.4900   17.8970 C.2   204  GLN204      0.2260
    120  O         10.7730  123.3960   18.4010 O.2   204  GLN204     -0.2867
    121  CB        12.3890  125.1840   19.7690 C.3   204  GLN204      0.0367
    122  CG        13.7740  125.7870   20.2240 C.3   204  GLN204      0.0905
    123  CD        13.9310  127.2960   19.9820 C.2   204  GLN204      0.2608
    124  OE1       14.7440  127.7150   19.1350 O.2   204  GLN204     -0.2717
    125  NE2       13.2060  128.1220   20.7550 N.am  204  GLN204     -0.0878
    126  N         10.4350  119.7110   28.3990 N.3   312  THR312     -0.1218
    127  CA        11.0260  121.0490   28.4790 C.3   312  THR312      0.1862
    128  C         11.2490  121.4200   29.9290 C.2   312  THR312      0.2287
    129  O         10.3170  121.3710   30.7300 O.2   312  THR312     -0.2866
    130  CB        10.0950  122.1270   27.8780 C.3   312  THR312      0.1770
    131  OG1        9.7840  121.7640   26.5350 O.3   312  THR312     -0.2211
    132  CG2       10.7240  123.5420   27.9440 C.3   312  THR312      0.0375
    133  N         13.3190  124.4290   32.2810 N.3   314  ILE314     -0.1245
    134  CA        14.0350  125.6900   32.4500 C.3   314  ILE314      0.1561
    135  C         14.5670  125.6960   33.8860 C.2   314  ILE314      0.2260
    136  O         13.8190  125.7660   34.8550 O.2   314  ILE314     -0.2867
    137  CB        13.0900  126.8910   32.1750 C.3   314  ILE314      0.0252
    138  CG1       12.4990  126.7910   30.7520 C.3   314  ILE314      0.0019
    139  CG2       13.7860  128.2450   32.4600 C.3   314  ILE314      0.0019
    140  CD1       11.2060  127.6240   30.5560 C.3   314  ILE314      0.0001
    141  N         18.5340  124.3900   30.2360 N.3   324  TYR324     -0.1241
    142  CA        17.4160  124.1940   29.3000 C.3   324  TYR324      0.1605
    143  C         17.4350  122.8470   28.5720 C.2   324  TYR324      0.2264
    144  O         18.4820  122.4140   28.0730 O.2   324  TYR324     -0.2867
    145  CB        17.4110  125.3100   28.2340 C.3   324  TYR324      0.0534
    146  CG        16.1350  125.3940   27.4280 C.ar  324  TYR324     -0.0201
    147  CD1       14.9520  125.8500   28.0180 C.ar  324  TYR324     -0.0009
    148  CD2       16.1340  125.0730   26.0680 C.ar  324  TYR324     -0.0009
    149  CE1       13.7840  125.9580   27.2930 C.ar  324  TYR324      0.0417
    150  CE2       14.9460  125.1680   25.3040 C.ar  324  TYR324      0.0417
    151  CZ        13.7910  125.6170   25.9190 C.ar  324  TYR324      0.1957
    152  OH        12.6190  125.7310   25.1920 O.3   324  TYR324     -0.2866
    153  N         14.8630  120.0240   25.9890 N.3   326  LEU326     -0.1245
    154  CA        13.6690  119.6530   25.2310 C.3   326  LEU326      0.1561
    155  C         13.5770  118.1570   25.0280 C.2   326  LEU326      0.2260
    156  O         14.5640  117.4380   25.0800 O.2   326  LEU326     -0.2867
    157  CB        13.6450  120.3460   23.8630 C.3   326  LEU326      0.0270
    158  CG        13.5680  121.8730   23.7630 C.3   326  LEU326      0.0019
    159  CD1       14.0860  122.3620   22.4540 C.3   326  LEU326      0.0001
    160  CD2       12.1530  122.4410   24.0420 C.3   326  LEU326      0.0001
    161  N         21.4420  121.6050   26.9700 N.3   341  PHE341     -0.1241
    162  CA        22.5770  122.4530   26.5360 C.3   341  PHE341      0.1605
    163  C         23.3380  122.8330   27.7810 C.2   341  PHE341      0.2264
    164  O         22.7270  123.3550   28.7360 O.2   341  PHE341     -0.2867
    165  CB        22.1480  123.7880   25.8850 C.3   341  PHE341      0.0534
    166  CG        21.5730  123.6890   24.4860 C.ar  341  PHE341     -0.0203
    167  CD1       20.2860  124.1670   24.2320 C.ar  341  PHE341     -0.0042
    168  CD2       22.3320  123.1960   23.4170 C.ar  341  PHE341     -0.0042
    169  CE1       19.7430  124.1040   22.9330 C.ar  341  PHE341     -0.0003
    170  CE2       21.7810  123.1200   22.1200 C.ar  341  PHE341     -0.0003
    171  CZ        20.5070  123.5690   21.8870 C.ar  341  PHE341     -0.0000
    172  N         26.2940  128.7710   19.0930 N.3   396  TYR396     -0.1241
    173  CA        25.6780  128.5150   17.7700 C.3   396  TYR396      0.1605
    174  C         26.2810  129.3990   16.6890 C.2   396  TYR396      0.2264
    175  O         26.2990  129.0290   15.4610 O.2   396  TYR396     -0.2867
    176  CB        24.1820  128.8300   17.8080 C.3   396  TYR396      0.0534
    177  CG        23.4860  128.4660   19.1010 C.ar  396  TYR396     -0.0201
    178  CD1       23.6080  127.1850   19.6500 C.ar  396  TYR396     -0.0009
    179  CD2       22.6730  129.3870   19.7610 C.ar  396  TYR396     -0.0009
    180  CE1       22.9520  126.8350   20.8240 C.ar  396  TYR396      0.0417
    181  CE2       22.0110  129.0330   20.9620 C.ar  396  TYR396      0.0417
    182  CZ        22.1490  127.7640   21.4810 C.ar  396  TYR396      0.1957
    183  OH        21.5090  127.3860   22.6750 O.3   396  TYR396     -0.2866
    184  N         21.1710  131.2100   12.6160 N.3   433  TYR433     -0.1241
    185  CA        20.3860  129.9680   12.3440 C.3   433  TYR433      0.1605
    186  C         20.5990  129.4010   10.9080 C.2   433  TYR433      0.2264
    187  O         21.1620  130.0620   10.0380 O.2   433  TYR433     -0.2867
    188  CB        18.8740  130.2570   12.5520 C.3   433  TYR433      0.0534
    189  CG        18.4570  130.6330   13.9790 C.ar  433  TYR433     -0.0201
    190  CD1       18.8860  131.8180   14.5680 C.ar  433  TYR433     -0.0009
    191  CD2       17.5940  129.8000   14.7250 C.ar  433  TYR433     -0.0009
    192  CE1       18.5160  132.1600   15.9000 C.ar  433  TYR433      0.0417
    193  CE2       17.1930  130.1430   16.0180 C.ar  433  TYR433      0.0417
    194  CZ        17.6790  131.3260   16.6100 C.ar  433  TYR433      0.1957
    195  OH        17.2310  131.6530   17.8740 O.3   433  TYR433     -0.2866
@<TRIPOS>BOND
     1   187   186    2
     2   186   185    1
     3   185   188    1
     4   185   184    1
     5   188   189    1
     6     4     3    2
     7     3     2    1
     8   189   190   ar
     9   189   191   ar
    10   190   192   ar
    11   191   193   ar
    12     1     2    1
    13     2     5    1
    14   175   174    2
    15   192   194   ar
    16   193   194   ar
    17     5     6    1
    18   194   195    1
    19   174   173    1
    20     6     8   ar
    21     6     7   ar
    22     8    10   ar
    23   173   176    1
    24   173   172    1
    25   176   177    1
    26   119   118    1
    27   119   120    2
    28   117   118    1
    29   118   121    1
    30     7     9   ar
    31    10    11   ar
    32   177   178   ar
    33   177   179   ar
    34   124   123    2
    35   106   108    1
    36   106   105    1
    37     9    11   ar
    38   101   102    1
    39    11    12    1
    40   178   180   ar
    41   102   105    1
    42   102   103    1
    43   179   181   ar
    44   121   122    1
    45   105   107    1
    46   123   122    1
    47   123   125   am
    48   104   103    2
    49   103   109   am
    50   180   182   ar
    51   181   182   ar
    52    98    97    2
    53   182   183    1
    54   109   110    1
    55   171   170   ar
    56   171   169   ar
    57   170   168   ar
    58    97    96    1
    59   159   158    1
    60   111   110    1
    61   111   112    2
    62   169   167   ar
    63    96    99    1
    64    96    95    1
    65    99   100    1
    66   110   113    1
    67   168   166   ar
    68    90    89    2
    69   158   157    1
    70   158   160    1
    71   157   154    1
    72   167   166   ar
    73    95    89   am
    74   113   114    1
    75   113   115    1
    76   114   116    1
    77   166   165    1
    78    89    88    1
    79    86    84   ar
    80    86    85   ar
    81    84    82   ar
    82   155   156    2
    83   155   154    1
    84   152   151    1
    85   154   153    1
    86    25    26    1
    87    25    22    1
    88   150   151   ar
    89   150   148   ar
    90    26    27    1
    91    85    83   ar
    92    93    92    1
    93    92    91    1
    94    92    94    1
    95    27    21    1
    96   165   162    1
    97   151   149   ar
    98    88    91    1
    99    88    87    1
   100    49    48    2
   101   148   146   ar
   102    82    81   ar
   103    36    38   ar
   104    36    34   ar
   105    79    78    2
   106    38    37   ar
   107    22    21    1
   108    22    23    1
   109   131   130    1
   110   162   161    1
   111   162   163    1
   112    83    81   ar
   113    81    80    1
   114    48    47    1
   115   149   147   ar
   116    58    56   ar
   117    58    59   ar
   118   146   147   ar
   119   146   145    1
   120    56    53   ar
   121    34    33   ar
   122    78    77    1
   123    37    35   ar
   124    23    24    2
   125    23    28   am
   126   163   164    2
   127   130   132    1
   128   130   127    1
   129   144   143    2
   130    20    18    1
   131    19    18    1
   132    47    50    1
   133    47    46    1
   134   145   142    1
   135    50    51    1
   136    59    57   ar
   137   126   127    1
   138    77    80    1
   139    77    76    1
   140   127   128    1
   141    28    29    1
   142    18    17    1
   143   143   142    1
   144    33    35   ar
   145    33    32    1
   146    53    51   ar
   147    53    55   ar
   148    51    52   ar
   149    71    70    2
   150   142   141    1
   151    57    55   ar
   152    55    54   ar
   153    29    32    1
   154    29    30    1
   155    76    70   am
   156   128   129    2
   157    70    69    1
   158    17    14    1
   159    52    54   ar
   160   140   138    1
   161    13    14    1
   162    75    73    1
   163   138   137    1
   164    14    15    1
   165    30    31    2
   166    30    39   am
   167    69    68    1
   168    69    72    1
   169    45    39    1
   170    45    44    1
   171    39    40    1
   172    63    62    2
   173    73    72    1
   174    73    74    1
   175   137   134    1
   176   137   139    1
   177   133   134    1
   178    15    16    2
   179   134   135    1
   180    44    43    1
   181    62    61    1
   182    66    65    1
   183    65    67    1
   184    65    64    1
   185    40    43    1
   186    40    41    1
   187   135   136    2
   188    42    41    2
   189    61    64    1
   190    61    60    1
