@<TRIPOS>MOLECULE
tmp/2v61B01.pdb
 189 183 0 0 0
SMALL
GASTEIGER

@<TRIPOS>ATOM
      1  N         16.8120  121.6700   14.9760 N.3    58  TYR58      -0.1241
      2  CA        15.4300  122.1660   14.9870 C.3    58  TYR58       0.1605
      3  C         15.1640  123.1560   13.8860 C.2    58  TYR58       0.2264
      4  O         16.0300  123.9670   13.5350 O.2    58  TYR58      -0.2867
      5  CB        15.1000  122.8190   16.3320 C.3    58  TYR58       0.0534
      6  CG        15.3300  121.8640   17.4470 C.ar   58  TYR58      -0.0201
      7  CD1       16.4210  122.0080   18.2880 C.ar   58  TYR58      -0.0009
      8  CD2       14.4930  120.7560   17.6120 C.ar   58  TYR58      -0.0009
      9  CE1       16.6690  121.0710   19.3020 C.ar   58  TYR58       0.0417
     10  CE2       14.7190  119.8300   18.6210 C.ar   58  TYR58       0.0417
     11  CZ        15.8100  119.9920   19.4480 C.ar   58  TYR58       0.1957
     12  OH        16.0450  119.0580   20.4150 O.3    58  TYR58      -0.2866
     13  N          5.4610  121.2720   30.4560 N.3    86  LEU86      -0.1245
     14  CA         6.8710  121.6570   30.5400 C.3    86  LEU86       0.1561
     15  C          7.2220  121.7360   32.0250 C.2    86  LEU86       0.2260
     16  O          6.3260  121.8410   32.8530 O.2    86  LEU86      -0.2867
     17  CB         7.0700  123.0350   29.9050 C.3    86  LEU86       0.0270
     18  CG         6.9320  123.1560   28.3840 C.3    86  LEU86       0.0019
     19  CD1        5.4700  123.0580   27.9310 C.3    86  LEU86       0.0001
     20  CD2        7.5360  124.4890   27.9160 C.3    86  LEU86       0.0001
     21  N          4.5220  128.8430   26.5130 N.3   100  PRO100     -0.2116
     22  CA         5.9780  128.9510   26.3130 C.3   100  PRO100      0.1372
     23  C          6.8090  129.5100   27.4770 C.2   100  PRO100      0.2244
     24  O          7.9850  129.1610   27.5920 O.2   100  PRO100     -0.2868
     25  CB         6.1060  129.8750   25.0960 C.3   100  PRO100      0.0268
     26  CG         4.8560  130.6820   25.0960 C.3   100  PRO100      0.0207
     27  CD         3.7750  129.8170   25.6920 C.3   100  PRO100      0.0892
     28  N          7.5490  130.0890   31.6170 N.3   102  PRO102     -0.2116
     29  CA         7.2250  129.5900   32.9600 C.3   102  PRO102      0.1372
     30  C          6.4910  130.6740   33.7400 C.2   102  PRO102      0.2244
     31  O          6.9280  131.8230   33.7160 O.2   102  PRO102     -0.2868
     32  CB         8.5950  129.3070   33.6020 C.3   102  PRO102      0.0268
     33  CG         9.5940  129.4300   32.5230 C.3   102  PRO102      0.0207
     34  CD         8.9970  130.1820   31.3760 C.3   102  PRO102      0.0892
     35  N         10.9250  140.5560   29.4100 N.3   117  TRP117     -0.1241
     36  CA        10.6770  140.0410   28.0610 C.3   117  TRP117      0.1605
     37  C         10.1820  141.1460   27.1360 C.2   117  TRP117      0.2264
     38  O         10.6210  141.2590   25.9940 O.2   117  TRP117     -0.2867
     39  CB         9.6560  138.9020   28.0980 C.3   117  TRP117      0.0550
     40  CG        10.1190  137.6880   28.8580 C.ar  117  TRP117      0.0003
     41  CD1        9.6810  137.2720   30.0930 C.ar  117  TRP117      0.0946
     42  CD2       11.1230  136.7460   28.4510 C.ar  117  TRP117      0.0152
     43  NE1       10.3360  136.1210   30.4680 N.ar  117  TRP117     -0.2442
     44  CE2       11.2240  135.7720   29.4800 C.ar  117  TRP117      0.0810
     45  CE3       11.9220  136.6110   27.3020 C.ar  117  TRP117      0.0012
     46  CZ2       12.1090  134.6830   29.4040 C.ar  117  TRP117      0.0191
     47  CZ3       12.8020  135.5200   27.2250 C.ar  117  TRP117      0.0001
     48  CH2       12.8870  134.5780   28.2730 C.ar  117  TRP117      0.0015
     49  N         16.4730  133.8240   35.2490 N.3   162  LEU162     -0.1245
     50  CA        15.8300  133.2800   34.0530 C.3   162  LEU162      0.1561
     51  C         16.3490  133.9730   32.7860 C.2   162  LEU162      0.2260
     52  O         16.5950  133.3160   31.7620 O.2   162  LEU162     -0.2867
     53  CB        14.3040  133.3680   34.1430 C.3   162  LEU162      0.0270
     54  CG        13.5470  132.6610   33.0050 C.3   162  LEU162      0.0019
     55  CD1       13.7500  131.1420   33.0610 C.3   162  LEU162      0.0001
     56  CD2       12.0620  132.9990   33.1150 C.3   162  LEU162      0.0001
     57  N         19.6830  132.4830   31.9240 N.3   165  LEU165     -0.1231
     58  CA        19.5040  131.2020   31.2710 C.3   165  LEU165      0.1693
     59  C         19.1380  131.4350   29.8010 C.2   165  LEU165      0.2592
     60  O         19.6920  130.7880   28.9080 O.2   165  LEU165     -0.2718
     61  CB        18.4090  130.4070   32.0100 C.3   165  LEU165      0.0284
     62  CG        18.2540  128.9200   31.6520 C.3   165  LEU165      0.0019
     63  CD1       17.6190  128.1880   32.8230 C.3   165  LEU165      0.0001
     64  CD2       17.4030  128.7570   30.3920 C.3   165  LEU165      0.0001
     65  N         18.2040  132.3630   29.5720 N.am  166  PHE166     -0.1976
     66  CA        17.7640  132.7440   28.2310 C.3   166  PHE166      0.1639
     67  C         18.9680  133.1010   27.3630 C.2   166  PHE166      0.2290
     68  O         19.1340  132.5580   26.2710 O.2   166  PHE166     -0.2864
     69  CB        16.7640  133.9080   28.3290 C.3   166  PHE166      0.0560
     70  CG        16.3680  134.5000   26.9970 C.ar  166  PHE166     -0.0200
     71  CD1       15.7520  133.7270   26.0240 C.ar  166  PHE166     -0.0042
     72  CD2       16.5520  135.8600   26.7530 C.ar  166  PHE166     -0.0042
     73  CE1       15.3730  134.2980   24.7840 C.ar  166  PHE166     -0.0003
     74  CE2       16.1640  136.4410   25.5300 C.ar  166  PHE166     -0.0003
     75  CZ        15.5800  135.6480   24.5500 C.ar  166  PHE166     -0.0000
     76  N         21.3060  130.0090   26.7590 N.3   169  LEU169     -0.1231
     77  CA        20.6690  129.0390   25.8610 C.3   169  LEU169      0.1693
     78  C         20.6140  129.5250   24.4150 C.2   169  LEU169      0.2592
     79  O         20.8080  128.7360   23.5120 O.2   169  LEU169     -0.2718
     80  CB        19.2640  128.7250   26.3680 C.3   169  LEU169      0.0284
     81  CG        18.4220  127.7170   25.6120 C.3   169  LEU169      0.0019
     82  CD1       19.1750  126.3980   25.3810 C.3   169  LEU169      0.0001
     83  CD2       17.1660  127.4970   26.4410 C.3   169  LEU169      0.0001
     84  N         20.3410  130.8150   24.2110 N.am  170  CYS170     -0.1970
     85  CA        20.2050  131.3770   22.8670 C.3   170  CYS170      0.1712
     86  C         21.5320  131.4120   22.1220 C.2   170  CYS170      0.2296
     87  O         21.5830  131.1630   20.9070 O.2   170  CYS170     -0.2864
     88  CB        19.5990  132.7930   22.9120 C.3   170  CYS170      0.0983
     89  SG        17.8300  132.8190   23.1920 S.3   170  CYS170     -0.0798
     90  N         20.1400  139.7850   17.7330 N.3   186  TYR186     -0.1241
     91  CA        20.0330  138.3560   17.4780 C.3   186  TYR186      0.1605
     92  C         18.6190  137.8590   17.7370 C.2   186  TYR186      0.2264
     93  O         18.0290  137.1450   16.9180 O.2   186  TYR186     -0.2867
     94  CB        21.0270  137.6090   18.3720 C.3   186  TYR186      0.0534
     95  CG        21.1920  136.1680   17.9890 C.ar  186  TYR186     -0.0201
     96  CD1       22.1230  135.7970   17.0080 C.ar  186  TYR186     -0.0009
     97  CD2       20.4180  135.1650   18.5920 C.ar  186  TYR186     -0.0009
     98  CE1       22.2950  134.4650   16.6400 C.ar  186  TYR186      0.0417
     99  CE2       20.5880  133.8150   18.2210 C.ar  186  TYR186      0.0417
    100  CZ        21.5170  133.4940   17.2390 C.ar  186  TYR186      0.1957
    101  OH        21.7070  132.1770   16.8770 O.3   186  TYR186     -0.2866
    102  N         11.6290  132.8590   19.3820 N.3   196  ILE196     -0.1231
    103  CA        12.9170  132.1840   19.5780 C.3   196  ILE196      0.1692
    104  C         12.8550  131.1110   20.6760 C.2   196  ILE196      0.2591
    105  O         13.5450  130.0830   20.5760 O.2   196  ILE196     -0.2718
    106  CB        14.0760  133.2040   19.7950 C.3   196  ILE196      0.0266
    107  CG1       15.4160  132.5920   19.3870 C.3   196  ILE196      0.0019
    108  CG2       14.1100  133.7580   21.2260 C.3   196  ILE196      0.0020
    109  CD1       16.6150  133.6100   19.4610 C.3   196  ILE196      0.0001
    110  N         12.0130  131.3280   21.6970 N.am  197  ILE197     -0.1980
    111  CA        11.9670  130.3930   22.8440 C.3   197  ILE197      0.1595
    112  C         10.9030  129.3080   22.7220 C.2   197  ILE197      0.2287
    113  O         10.8790  128.3740   23.5150 O.2   197  ILE197     -0.2864
    114  CB        11.7570  131.1010   24.2150 C.3   197  ILE197      0.0276
    115  CG1       10.3300  131.6500   24.3230 C.3   197  ILE197      0.0022
    116  CG2       12.8730  132.1180   24.4430 C.3   197  ILE197      0.0022
    117  CD1        9.8300  131.7280   25.7480 C.3   197  ILE197      0.0001
    118  N         11.8710  125.7990   17.8500 N.3   204  GLN204     -0.1245
    119  CA        12.1140  124.3840   18.1860 C.3   204  GLN204      0.1566
    120  C         10.9370  123.4730   17.8270 C.2   204  GLN204      0.2260
    121  O         10.8450  122.3650   18.3560 O.2   204  GLN204     -0.2867
    122  CB        12.4460  124.2250   19.6810 C.3   204  GLN204      0.0367
    123  CG        13.8620  124.6970   20.0480 C.3   204  GLN204      0.0905
    124  CD        14.0390  126.2010   19.8380 C.2   204  GLN204      0.2608
    125  OE1       14.8180  126.6430   18.9690 O.2   204  GLN204     -0.2717
    126  NE2       13.3180  126.9910   20.6260 N.am  204  GLN204     -0.0878
    127  N         13.4280  123.3330   32.0590 N.3   314  ILE314     -0.1245
    128  CA        14.1830  124.5970   32.1190 C.3   314  ILE314      0.1561
    129  C         14.7160  124.6150   33.5400 C.2   314  ILE314      0.2260
    130  O         13.9370  124.6600   34.4880 O.2   314  ILE314     -0.2867
    131  CB        13.2490  125.7920   31.8370 C.3   314  ILE314      0.0252
    132  CG1       12.6920  125.6920   30.4150 C.3   314  ILE314      0.0019
    133  CG2       14.0000  127.1300   32.0510 C.3   314  ILE314      0.0019
    134  CD1       11.3110  126.3190   30.2630 C.3   314  ILE314      0.0001
    135  N         18.7530  123.1480   29.9800 N.3   324  TYR324     -0.1241
    136  CA        17.5800  123.0280   29.1010 C.3   324  TYR324      0.1605
    137  C         17.5780  121.6920   28.3900 C.2   324  TYR324      0.2264
    138  O         18.6130  121.2520   27.8770 O.2   324  TYR324     -0.2867
    139  CB        17.5770  124.1400   28.0490 C.3   324  TYR324      0.0534
    140  CG        16.3000  124.2350   27.2280 C.ar  324  TYR324     -0.0201
    141  CD1       15.1210  124.7460   27.7830 C.ar  324  TYR324     -0.0009
    142  CD2       16.2970  123.8810   25.8780 C.ar  324  TYR324     -0.0009
    143  CE1       13.9500  124.8740   27.0210 C.ar  324  TYR324      0.0417
    144  CE2       15.1330  124.0050   25.1100 C.ar  324  TYR324      0.0417
    145  CZ        13.9720  124.5030   25.6900 C.ar  324  TYR324      0.1957
    146  OH        12.8100  124.6450   24.9540 O.3   324  TYR324     -0.2866
    147  N         14.9390  118.9640   25.7810 N.3   326  LEU326     -0.1245
    148  CA        13.7470  118.6430   25.0090 C.3   326  LEU326      0.1561
    149  C         13.6600  117.1370   24.8190 C.2   326  LEU326      0.2260
    150  O         14.6770  116.4310   24.7970 O.2   326  LEU326     -0.2867
    151  CB        13.7960  119.3150   23.6320 C.3   326  LEU326      0.0270
    152  CG        13.7170  120.8520   23.5870 C.3   326  LEU326      0.0019
    153  CD1       14.1550  121.3270   22.1880 C.3   326  LEU326      0.0001
    154  CD2       12.3150  121.3780   23.9610 C.3   326  LEU326      0.0001
    155  N         21.4830  120.4850   26.7180 N.3   341  PHE341     -0.1241
    156  CA        22.6810  121.2750   26.3810 C.3   341  PHE341      0.1605
    157  C         23.4590  121.5850   27.6330 C.2   341  PHE341      0.2264
    158  O         22.8550  121.9800   28.6390 O.2   341  PHE341     -0.2867
    159  CB        22.2860  122.6400   25.7930 C.3   341  PHE341      0.0534
    160  CG        21.6800  122.5770   24.4160 C.ar  341  PHE341     -0.0203
    161  CD1       20.4010  123.0740   24.1940 C.ar  341  PHE341     -0.0042
    162  CD2       22.4010  122.0610   23.3390 C.ar  341  PHE341     -0.0042
    163  CE1       19.8330  123.0370   22.9080 C.ar  341  PHE341     -0.0003
    164  CE2       21.8480  122.0140   22.0580 C.ar  341  PHE341     -0.0003
    165  CZ        20.5650  122.5090   21.8480 C.ar  341  PHE341     -0.0000
    166  N         26.4460  127.4990   19.0250 N.3   396  TYR396     -0.1241
    167  CA        25.8330  127.3150   17.6910 C.3   396  TYR396      0.1605
    168  C         26.4350  128.2390   16.6570 C.2   396  TYR396      0.2264
    169  O         26.4960  127.9030   15.4630 O.2   396  TYR396     -0.2867
    170  CB        24.3250  127.6150   17.7180 C.3   396  TYR396      0.0534
    171  CG        23.6260  127.2550   18.9900 C.ar  396  TYR396     -0.0201
    172  CD1       23.7520  125.9860   19.5290 C.ar  396  TYR396     -0.0009
    173  CD2       22.8380  128.2000   19.6540 C.ar  396  TYR396     -0.0009
    174  CE1       23.0970  125.6450   20.7170 C.ar  396  TYR396      0.0417
    175  CE2       22.1750  127.8860   20.8440 C.ar  396  TYR396      0.0417
    176  CZ        22.3170  126.6060   21.3680 C.ar  396  TYR396      0.1957
    177  OH        21.6780  126.2910   22.5390 O.3   396  TYR396     -0.2866
    178  N         21.2660  130.0530   12.5750 N.3   433  TYR433     -0.1241
    179  CA        20.4830  128.8370   12.3690 C.3   433  TYR433      0.1605
    180  C         20.6970  128.2810   10.9570 C.2   433  TYR433      0.2264
    181  O         21.2530  128.9490   10.0800 O.2   433  TYR433     -0.2867
    182  CB        18.9880  129.1490   12.5360 C.3   433  TYR433      0.0534
    183  CG        18.5940  129.5250   13.9400 C.ar  433  TYR433     -0.0201
    184  CD1       18.9650  130.7660   14.4860 C.ar  433  TYR433     -0.0009
    185  CD2       17.8520  128.6560   14.7170 C.ar  433  TYR433     -0.0009
    186  CE1       18.5990  131.1200   15.7820 C.ar  433  TYR433      0.0417
    187  CE2       17.4830  128.9970   16.0150 C.ar  433  TYR433      0.0417
    188  CZ        17.8650  130.2230   16.5410 C.ar  433  TYR433      0.1957
    189  OH        17.4910  130.5650   17.8180 O.3   433  TYR433     -0.2866
@<TRIPOS>BOND
     1   181   180    2
     2   180   179    1
     3   179   182    1
     4   179   178    1
     5   182   183    1
     6     4     3    2
     7     3     2    1
     8   183   184   ar
     9   183   185   ar
    10   184   186   ar
    11   185   187   ar
    12     1     2    1
    13     2     5    1
    14   169   168    2
    15   186   188   ar
    16   187   188   ar
    17     5     6    1
    18   188   189    1
    19    98    96   ar
    20    98   100   ar
    21   168   167    1
    22   101   100    1
    23    93    92    2
    24    96    95   ar
    25   100    99   ar
    26     6     8   ar
    27     6     7   ar
    28    91    90    1
    29    91    92    1
    30    91    94    1
    31     8    10   ar
    32   167   170    1
    33   167   166    1
    34   170   171    1
    35   120   119    1
    36   120   121    2
    37   118   119    1
    38    95    94    1
    39    95    97   ar
    40   119   122    1
    41    99    97   ar
    42     7     9   ar
    43    10    11   ar
    44   125   124    2
    45   171   172   ar
    46   171   173   ar
    47     9    11   ar
    48   102   103    1
    49   107   109    1
    50   107   106    1
    51    11    12    1
    52   172   174   ar
    53   103   106    1
    54   103   104    1
    55   173   175   ar
    56   122   123    1
    57   106   108    1
    58   124   123    1
    59   124   126   am
    60   105   104    2
    61   104   110   am
    62   174   176   ar
    63   175   176   ar
    64    87    86    2
    65   176   177    1
    66   110   111    1
    67   165   164   ar
    68   165   163   ar
    69   164   162   ar
    70    86    85    1
    71   153   152    1
    72   112   111    1
    73   112   113    2
    74   111   114    1
    75    85    88    1
    76    85    84    1
    77   163   161   ar
    78    88    89    1
    79   162   160   ar
    80    79    78    2
    81   152   151    1
    82   152   154    1
    83   151   148    1
    84   161   160   ar
    85    84    78   am
    86   114   115    1
    87   114   116    1
    88   115   117    1
    89    78    77    1
    90   160   159    1
    91    75    73   ar
    92    75    74   ar
    93    73    71   ar
    94   150   149    2
    95   149   148    1
    96   146   145    1
    97   148   147    1
    98    26    25    1
    99    26    27    1
   100    25    22    1
   101   144   145   ar
   102   144   142   ar
   103    82    81    1
   104    74    72   ar
   105    81    80    1
   106    81    83    1
   107   145   143   ar
   108    27    21    1
   109   159   156    1
   110    77    80    1
   111    77    76    1
   112   142   140   ar
   113    38    37    2
   114    71    70   ar
   115    68    67    2
   116    22    21    1
   117    22    23    1
   118   156   155    1
   119   156   157    1
   120    72    70   ar
   121    70    69    1
   122   143   141   ar
   123    37    36    1
   124    47    45   ar
   125    47    48   ar
   126   140   141   ar
   127   140   139    1
   128    45    42   ar
   129    67    66    1
   130    23    24    2
   131   157   158    2
   132   138   137    2
   133    20    18    1
   134    19    18    1
   135   139   136    1
   136    36    39    1
   137    36    35    1
   138    39    40    1
   139    66    69    1
   140    66    65    1
   141    48    46   ar
   142    18    17    1
   143   137   136    1
   144    42    40   ar
   145    42    44   ar
   146    40    41   ar
   147    60    59    2
   148   136   135    1
   149    46    44   ar
   150    44    43   ar
   151    65    59   am
   152    59    58    1
   153    17    14    1
   154    41    43   ar
   155   134   132    1
   156    64    62    1
   157   132   131    1
   158    13    14    1
   159    14    15    1
   160    58    57    1
   161    58    61    1
   162    34    28    1
   163    34    33    1
   164    28    29    1
   165    62    61    1
   166    62    63    1
   167    52    51    2
   168   131   133    1
   169   131   128    1
   170    15    16    2
   171   127   128    1
   172   128   129    1
   173    33    32    1
   174    51    50    1
   175    29    32    1
   176    29    30    1
   177    54    55    1
   178    54    56    1
   179    54    53    1
   180   129   130    2
   181    31    30    2
   182    50    53    1
   183    50    49    1
