@<TRIPOS>MOLECULE
tmp/2v63D01.pdb
 158 151 0 0 0
SMALL
GASTEIGER

@<TRIPOS>ATOM
      1  N        -41.4360  115.5800   99.6690 N.3   161  THR161     -0.1218
      2  CA       -41.8530  114.1820   99.7820 C.3   161  THR161      0.1862
      3  C        -43.2580  114.0220   99.1950 C.2   161  THR161      0.2287
      4  O        -44.1790  114.7760   99.5550 O.2   161  THR161     -0.2866
      5  CB       -41.8660  113.6870  101.2570 C.3   161  THR161      0.1770
      6  OG1      -40.6260  114.0070  101.8990 O.3   161  THR161     -0.2211
      7  CG2      -42.0640  112.1870  101.3120 C.3   161  THR161      0.0375
      8  N        -46.9140  112.7410   98.7850 N.3   163  LYS163     -0.1245
      9  CA       -47.9620  112.3370   99.7380 C.3   163  LYS163      0.1561
     10  C        -49.2280  111.9560   98.9450 C.2   163  LYS163      0.2260
     11  O        -49.3810  112.4120   97.8230 O.2   163  LYS163     -0.2867
     12  CB       -48.2540  113.4770  100.7200 C.3   163  LYS163      0.0271
     13  CG       -47.0430  113.9780  101.5100 C.3   163  LYS163      0.0035
     14  CD       -46.4670  112.9350  102.4650 C.3   163  LYS163      0.0206
     15  CE       -45.2200  113.4720  103.1460 C.3   163  LYS163      0.1093
     16  NZ       -44.6250  112.4950  104.1100 N.3   163  LYS163     -0.1314
     17  N        -48.3830  109.2110  102.0750 N.3   165  LYS165     -0.1245
     18  CA       -47.1550  108.4290  102.2490 C.3   165  LYS165      0.1561
     19  C        -47.2340  107.1430  101.4450 C.2   165  LYS165      0.2260
     20  O        -46.2900  106.7800  100.7350 O.2   165  LYS165     -0.2867
     21  CB       -46.9280  108.0870  103.7220 C.3   165  LYS165      0.0271
     22  CG       -46.9020  109.2930  104.6730 C.3   165  LYS165      0.0035
     23  CD       -46.7440  108.8540  106.1280 C.3   165  LYS165      0.0206
     24  CE       -45.4050  108.1960  106.3800 C.3   165  LYS165      0.1093
     25  NZ       -44.2910  109.1870  106.2410 N.3   165  LYS165     -0.1314
     26  N        -41.3220  108.5460  100.0830 N.3   190  ASP190     -0.1225
     27  CA       -41.4080  108.5480  101.5340 C.3   190  ASP190      0.1805
     28  C        -40.5460  107.3910  102.0390 C.2   190  ASP190      0.2597
     29  O        -40.3240  106.4000  101.3350 O.2   190  ASP190     -0.2718
     30  CB       -42.8540  108.3870  102.0160 C.3   190  ASP190      0.1424
     31  CG       -43.2780  109.4760  102.9960 C.2   190  ASP190      0.3668
     32  OD1      -42.5180  109.8060  103.9330 O.co2 190  ASP190     -0.2456
     33  OD2      -44.3870  110.0330  102.8090 O.co2 190  ASP190     -0.2456
     34  N        -40.0570  107.5210  103.2610 N.am  191  GLU191     -0.1979
     35  CA       -39.1570  106.5220  103.8240 C.3   191  GLU191      0.1602
     36  C        -39.7320  105.0980  103.7340 C.2   191  GLU191      0.2287
     37  O        -38.9810  104.1290  103.5530 O.2   191  GLU191     -0.2864
     38  CB       -38.7790  106.8860  105.2630 C.3   191  GLU191      0.0415
     39  CG       -39.8870  106.7430  106.3130 C.3   191  GLU191      0.1163
     40  CD       -40.9070  107.8720  106.2630 C.2   191  GLU191      0.3649
     41  OE1      -40.5170  109.0190  105.9630 O.co2 191  GLU191     -0.2457
     42  OE2      -42.0970  107.6130  106.5430 O.co2 191  GLU191     -0.2457
     43  N        -32.1100  108.7750  104.9190 N.3   280  HIS280     -0.1226
     44  CA       -33.2420  109.0400  105.7970 C.3   280  HIS280      0.1752
     45  C        -32.9890  108.3680  107.1350 C.2   280  HIS280      0.2595
     46  O        -32.4850  107.2460  107.1870 O.2   280  HIS280     -0.2718
     47  CB       -34.5360  108.5270  105.1680 C.3   280  HIS280      0.0759
     48  CG       -35.7750  108.9970  105.8620 C.ar  280  HIS280      0.0818
     49  ND1      -36.2380  108.4330  107.0310 N.ar  280  HIS280     -0.2268
     50  CD2      -36.6500  109.9820  105.5470 C.ar  280  HIS280      0.1154
     51  CE1      -37.3500  109.0470  107.4050 C.ar  280  HIS280      0.1986
     52  NE2      -37.6190  109.9930  106.5240 N.ar  280  HIS280     -0.2212
     53  N        -33.3180  109.0660  108.2170 N.am  281  ARG281     -0.1980
     54  CA       -32.9390  108.6150  109.5620 C.3   281  ARG281      0.1597
     55  C        -34.1000  107.9470  110.2960 C.2   281  ARG281      0.2287
     56  O        -34.1410  107.9300  111.5280 O.2   281  ARG281     -0.2864
     57  CB       -32.3470  109.7720  110.3780 C.3   281  ARG281      0.0334
     58  CG       -33.2590  110.9940  110.4790 C.3   281  ARG281      0.0492
     59  CD       -32.6670  112.0740  111.3510 C.3   281  ARG281      0.2205
     60  NE       -33.6690  113.0890  111.6800 N.pl3 281  ARG281     -0.0865
     61  CZ       -33.4800  114.0600  112.5690 C.cat 281  ARG281      0.5346
     62  NH1      -32.3190  114.1750  113.1990 N.pl3 281  ARG281      0.1354
     63  NH2      -34.4550  114.9120  112.8300 N.pl3 281  ARG281      0.1354
     64  N        -34.5560  106.8660  114.1740 N.3   284  HIS284     -0.1241
     65  CA       -33.5930  107.5310  115.0600 C.3   284  HIS284      0.1621
     66  C        -34.1900  107.9710  116.4040 C.2   284  HIS284      0.2264
     67  O        -33.5100  107.9100  117.4320 O.2   284  HIS284     -0.2867
     68  CB       -32.9170  108.7190  114.3820 C.3   284  HIS284      0.0745
     69  CG       -33.7640  109.9500  114.3500 C.ar  284  HIS284      0.0817
     70  ND1      -33.6000  110.9920  115.2410 N.ar  284  HIS284     -0.2268
     71  CD2      -34.8110  110.2880  113.5630 C.ar  284  HIS284      0.1154
     72  CE1      -34.5000  111.9280  114.9890 C.ar  284  HIS284      0.1986
     73  NE2      -35.2410  111.5280  113.9710 N.ar  284  HIS284     -0.2212
     74  N        -30.9220  113.7270  106.8630 N.3   313  HIS313     -0.1241
     75  CA       -31.9030  114.5160  107.6180 C.3   313  HIS313      0.1621
     76  C        -31.3450  114.9970  108.9520 C.2   313  HIS313      0.2264
     77  O        -30.7210  114.2380  109.6890 O.2   313  HIS313     -0.2867
     78  CB       -33.1820  113.7160  107.8450 C.3   313  HIS313      0.0745
     79  CG       -33.9920  113.5100  106.6060 C.ar  313  HIS313      0.0817
     80  ND1      -35.2900  113.9560  106.4860 N.ar  313  HIS313     -0.2268
     81  CD2      -33.6980  112.8920  105.4390 C.ar  313  HIS313      0.1154
     82  CE1      -35.7620  113.6260  105.2970 C.ar  313  HIS313      0.1986
     83  NE2      -34.8150  112.9800  104.6410 N.ar  313  HIS313     -0.2212
     84  N        -33.3040  117.4040  111.0400 N.3   315  GLY315     -0.1225
     85  CA       -34.3310  118.0880  111.8240 C.3   315  GLY315      0.1811
     86  C        -34.4900  119.5210  111.3490 C.2   315  GLY315      0.2280
     87  O        -33.6730  120.0170  110.5690 O.2   315  GLY315     -0.2866
     88  N        -42.7240  119.9100  112.8160 N.3   320  LYS320     -0.1231
     89  CA       -43.5780  119.0080  113.6100 C.3   320  LYS320      0.1693
     90  C        -42.7930  118.0260  114.4890 C.2   320  LYS320      0.2591
     91  O        -43.3430  117.4650  115.4430 O.2   320  LYS320     -0.2718
     92  CB       -44.5600  118.2400  112.6990 C.3   320  LYS320      0.0285
     93  CG       -43.9170  117.1970  111.7870 C.3   320  LYS320      0.0035
     94  CD       -44.8680  116.6800  110.7060 C.3   320  LYS320      0.0206
     95  CE       -44.2120  115.5380  109.9290 C.3   320  LYS320      0.1093
     96  NZ       -44.9860  115.0880  108.7330 N.3   320  LYS320     -0.1314
     97  N        -41.5190  117.8110  114.1520 N.am  321  LEU321     -0.1980
     98  CA       -40.6630  116.8900  114.8930 C.3   321  LEU321      0.1596
     99  C        -39.6430  117.6310  115.7550 C.2   321  LEU321      0.2287
    100  O        -39.1850  118.7080  115.3880 O.2   321  LEU321     -0.2864
    101  CB       -39.9750  115.9330  113.9170 C.3   321  LEU321      0.0297
    102  CG       -40.9610  115.1470  113.0480 C.3   321  LEU321      0.0022
    103  CD1      -40.6180  115.2550  111.5770 C.3   321  LEU321      0.0001
    104  CD2      -41.0190  113.6980  113.4700 C.3   321  LEU321      0.0001
    105  N        -36.6160  118.7820  107.1790 N.3   364  SER364     -0.1202
    106  CA       -37.8890  118.2480  106.7000 C.3   364  SER364      0.2020
    107  C        -38.8310  117.9820  107.8620 C.2   364  SER364      0.2619
    108  O        -38.3860  117.6030  108.9410 O.2   364  SER364     -0.2717
    109  CB       -37.6280  116.9280  105.9700 C.3   364  SER364      0.2103
    110  OG       -38.8250  116.3400  105.5000 O.3   364  SER364     -0.2182
    111  N        -40.1290  118.1570  107.6350 N.am  365  GLY365     -0.1942
    112  CA       -41.1330  117.7380  108.6070 C.3   365  GLY365      0.2014
    113  C        -41.9830  118.8650  109.1580 C.2   365  GLY365      0.2639
    114  O        -41.5970  119.5270  110.1160 O.2   365  GLY365     -0.2714
    115  N        -43.1460  119.0780  108.5490 N.am  366  GLY366     -0.1939
    116  CA       -44.0830  120.0860  109.0490 C.3   366  GLY366      0.2014
    117  C        -43.6200  121.5120  108.8220 C.2   366  GLY366      0.2638
    118  O        -44.0550  122.4230  109.5240 O.2   366  GLY366     -0.2714
    119  N        -42.7460  121.7230  107.8430 N.am  367  ILE367     -0.1977
    120  CA       -42.3660  123.0920  107.4990 C.3   367  ILE367      0.1596
    121  C        -43.1360  123.6750  106.3060 C.2   367  ILE367      0.2287
    122  O        -43.6400  122.9460  105.4410 O.2   367  ILE367     -0.2864
    123  CB       -40.8310  123.2590  107.3270 C.3   367  ILE367      0.0276
    124  CG1      -40.2780  122.2780  106.2900 C.3   367  ILE367      0.0022
    125  CG2      -40.1390  123.1030  108.6930 C.3   367  ILE367      0.0022
    126  CD1      -38.7770  122.4620  105.9940 C.3   367  ILE367      0.0001
    127  N        -36.9890  120.5220  102.6860 N.3   386  GLN386     -0.1231
    128  CA       -38.0220  119.6690  102.0960 C.3   386  GLN386      0.1698
    129  C        -39.4310  119.9790  102.5610 C.2   386  GLN386      0.2592
    130  O        -39.6950  120.0500  103.7570 O.2   386  GLN386     -0.2718
    131  CB       -37.7220  118.2060  102.3660 C.3   386  GLN386      0.0381
    132  CG       -36.4850  117.7270  101.6680 C.3   386  GLN386      0.0905
    133  CD       -36.2890  116.2500  101.8240 C.2   386  GLN386      0.2608
    134  OE1      -36.9600  115.6060  102.6320 O.2   386  GLN386     -0.2717
    135  NE2      -35.3640  115.6950  101.0540 N.am  386  GLN386     -0.0878
    136  N        -40.3260  120.1350  101.5920 N.am  387  PHE387     -0.1962
    137  CA       -41.7080  120.5220  101.8420 C.3   387  PHE387      0.1771
    138  C        -42.6480  119.5160  101.2050 C.2   387  PHE387      0.2620
    139  O        -42.9600  119.6310  100.0160 O.2   387  PHE387     -0.2715
    140  CB       -41.9650  121.9090  101.2550 C.3   387  PHE387      0.0574
    141  CG       -41.1030  122.9740  101.8450 C.ar  387  PHE387     -0.0200
    142  CD1      -41.5570  123.7290  102.9140 C.ar  387  PHE387     -0.0042
    143  CD2      -39.8260  123.2120  101.3420 C.ar  387  PHE387     -0.0042
    144  CE1      -40.7580  124.7260  103.4760 C.ar  387  PHE387     -0.0003
    145  CE2      -39.0140  124.1940  101.9020 C.ar  387  PHE387     -0.0003
    146  CZ       -39.4850  124.9540  102.9780 C.ar  387  PHE387     -0.0000
    147  N        -43.0860  118.5300  101.9900 N.am  388  GLY388     -0.1940
    148  CA       -44.0340  117.5290  101.5170 C.3   388  GLY388      0.2014
    149  C        -45.4350  118.1070  101.5390 C.2   388  GLY388      0.2639
    150  O        -45.9440  118.5570  100.5130 O.2   388  GLY388     -0.2714
    151  N        -46.0480  118.0930  102.7170 N.am  389  GLY389     -0.1939
    152  CA       -47.3340  118.7290  102.9270 C.3   389  GLY389      0.2014
    153  C        -47.3230  120.1780  102.4530 C.2   389  GLY389      0.2639
    154  O        -48.3090  120.6600  101.9080 O.2   389  GLY389     -0.2714
    155  N        -46.1970  120.8590  102.6520 N.am  390  GLY390     -0.1954
    156  CA       -46.0360  122.2510  102.2320 C.3   390  GLY390      0.1869
    157  C        -45.9790  122.5190  100.7330 C.2   390  GLY390      0.2309
    158  O        -45.8620  123.6740  100.3260 O.2   390  GLY390     -0.2863
@<TRIPOS>BOND
     1    11    10    2
     2     8     9    1
     3    10     9    1
     4     3     4    2
     5     3     2    1
     6     1     2    1
     7     9    12    1
     8     2     5    1
     9   139   138    2
    10    26    27    1
    11   158   157    2
    12   150   149    2
    13    12    13    1
    14   157   156    1
    15    20    19    2
    16   135   133   am
    17   138   137    1
    18   138   147   am
    19   140   137    1
    20   140   141    1
    21     5     7    1
    22     5     6    1
    23    29    28    2
    24   143   141   ar
    25   143   145   ar
    26    19    18    1
    27    13    14    1
    28   148   149    1
    29   148   147    1
    30    27    30    1
    31    27    28    1
    32   149   151   am
    33   136   137    1
    34   136   129   am
    35   132   133    1
    36   132   131    1
    37   133   134    2
    38   141   142   ar
    39   145   146   ar
    40   154   153    2
    41    30    31    1
    42    28    34   am
    43    17    18    1
    44   128   131    1
    45   128   129    1
    46   128   127    1
    47   156   155    1
    48    18    21    1
    49   153   155   am
    50   153   152    1
    51    14    15    1
    52   129   130    2
    53   151   152    1
    54    33    31   ar
    55   142   144   ar
    56   146   144   ar
    57    31    32   ar
    58    15    16    1
    59    34    35    1
    60    37    36    2
    61    21    22    1
    62    36    35    1
    63    35    38    1
    64    83    82   ar
    65    83    81   ar
    66    22    23    1
    67    43    44    1
    68    47    44    1
    69    47    48    1
    70    38    39    1
    71    82    80   ar
    72    81    79   ar
    73   122   121    2
    74   110   109    1
    75    50    48   ar
    76    50    52   ar
    77    44    45    1
    78    48    49   ar
    79    41    40   ar
    80   109   106    1
    81   126   124    1
    82    23    24    1
    83    25    24    1
    84    40    39    1
    85    40    42   ar
    86   124   123    1
    87   121   120    1
    88    80    79   ar
    89    52    51   ar
    90    79    78    1
    91   106   105    1
    92   106   107    1
    93    74    75    1
    94    49    51   ar
    95    45    46    2
    96    45    53   am
    97   123   120    1
    98   123   125    1
    99   120   119    1
   100    75    78    1
   101    75    76    1
   102   111   107   am
   103   111   112    1
   104   119   117   am
   105   107   108    2
   106    53    54    1
   107   115   116    1
   108   115   113   am
   109   112   113    1
   110    96    95    1
   111   117   116    1
   112   117   118    2
   113    76    77    2
   114   113   114    2
   115    54    55    1
   116    54    57    1
   117    95    94    1
   118    55    56    2
   119    57    58    1
   120    58    59    1
   121    87    86    2
   122    94    93    1
   123    84    85    1
   124    86    85    1
   125    59    60    1
   126   103   102    1
   127    60    61    2
   128    93    92    1
   129    61    63    1
   130    61    62    1
   131    92    89    1
   132    88    89    1
   133   102   104    1
   134   102   101    1
   135    71    73   ar
   136    71    69   ar
   137    89    90    1
   138   101    98    1
   139    73    72   ar
   140    97    90   am
   141    97    98    1
   142    64    65    1
   143    69    68    1
   144    69    70   ar
   145    68    65    1
   146    90    91    2
   147    98    99    1
   148    72    70   ar
   149    65    66    1
   150   100    99    2
   151    66    67    2
