@<TRIPOS>MOLECULE
tmp/2v6iA00.pdb
 112 103 0 0 0
SMALL
GASTEIGER

@<TRIPOS>ATOM
      1  N         63.8700  -45.2460   49.5120 N.3    10  PRO10      -0.2102
      2  CA        62.9110  -45.7570   48.5220 C.3    10  PRO10       0.1504
      3  C         63.1660  -47.2390   48.2210 C.2    10  PRO10       0.2576
      4  O         64.3210  -47.6520   48.1280 O.2    10  PRO10      -0.2718
      5  CB        63.1940  -44.9060   47.2790 C.3    10  PRO10       0.0282
      6  CG        63.8560  -43.6780   47.7860 C.3    10  PRO10       0.0208
      7  CD        64.6600  -44.1200   48.9800 C.3    10  PRO10       0.0893
      8  N         62.0980  -48.0260   48.1050 N.am   11  GLY11      -0.1957
      9  CA        62.2050  -49.4730   47.9300 C.3    11  GLY11       0.1869
     10  C         62.2580  -50.2890   49.2130 C.2    11  GLY11       0.2309
     11  O         62.1430  -51.5190   49.1820 O.2    11  GLY11      -0.2863
     12  N         60.1230  -50.6450   51.3700 N.3    13  GLY13      -0.1210
     13  CA        58.8120  -51.2250   51.6530 C.3    13  GLY13       0.1956
     14  C         58.0720  -50.5710   52.8130 C.2    13  GLY13       0.2612
     15  O         57.4750  -51.2690   53.6330 O.2    13  GLY13      -0.2717
     16  N         58.1060  -49.2380   52.8740 N.am   14  LYS14      -0.1965
     17  CA        57.3890  -48.4700   53.9020 C.3    14  LYS14       0.1728
     18  C         55.9410  -48.9120   54.0060 C.2    14  LYS14       0.2617
     19  O         55.4340  -49.1340   55.1050 O.2    14  LYS14      -0.2715
     20  CB        57.3910  -46.9740   53.5870 C.3    14  LYS14       0.0311
     21  CG        58.7210  -46.2770   53.6830 C.3    14  LYS14       0.0038
     22  CD        58.5680  -44.8620   53.1340 C.3    14  LYS14       0.0206
     23  CE        59.8100  -44.4080   52.4140 C.3    14  LYS14       0.1093
     24  NZ        60.2600  -45.3700   51.3650 N.3    14  LYS14      -0.1314
     25  N         55.3000  -49.0280   52.8420 N.am   15  THR15      -0.1937
     26  CA        53.8850  -49.3460   52.7180 C.3    15  THR15       0.2028
     27  C         53.6050  -50.8630   52.7130 C.2    15  THR15       0.2642
     28  O         52.6830  -51.3380   53.3990 O.2    15  THR15      -0.2714
     29  CB        53.2970  -48.6400   51.4590 C.3    15  THR15       0.1808
     30  OG1       53.3560  -47.2130   51.6410 O.3    15  THR15      -0.2208
     31  CG2       51.8450  -49.0580   51.1820 C.3    15  THR15       0.0379
     32  N         54.4000  -51.6170   51.9550 N.am   16  ARG16      -0.1977
     33  CA        54.1590  -53.0520   51.7870 C.3    16  ARG16       0.1597
     34  C         54.5740  -53.9490   52.9730 C.2    16  ARG16       0.2287
     35  O         53.9490  -54.9900   53.2040 O.2    16  ARG16      -0.2864
     36  CB        54.7640  -53.5560   50.4720 C.3    16  ARG16       0.0334
     37  CG        53.7320  -54.0600   49.4480 C.3    16  ARG16       0.0492
     38  CD        53.3350  -53.0140   48.3940 C.3    16  ARG16       0.2205
     39  NE        52.0030  -52.4220   48.6010 N.pl3  16  ARG16      -0.0865
     40  CZ        50.8380  -53.0120   48.3080 C.cat  16  ARG16       0.5346
     41  NH1       50.7900  -54.2450   47.8040 N.pl3  16  ARG16       0.1354
     42  NH2       49.7010  -52.3700   48.5330 N.pl3  16  ARG16       0.1354
     43  N         47.0330  -48.0630   47.7070 N.3    45  GLU45      -0.1245
     44  CA        48.1880  -48.9380   47.9070 C.3    45  GLU45       0.1567
     45  C         48.2340  -49.4570   49.3400 C.2    45  GLU45       0.2260
     46  O         48.4790  -50.6360   49.5730 O.2    45  GLU45      -0.2867
     47  CB        49.4950  -48.2120   47.5820 C.3    45  GLU45       0.0388
     48  CG        49.8100  -48.1080   46.0970 C.3    45  GLU45       0.1160
     49  CD        51.0800  -47.3060   45.8030 C.2    45  GLU45       0.3649
     50  OE1       51.9950  -47.2340   46.6710 O.co2  45  GLU45      -0.2457
     51  OE2       51.1590  -46.7470   44.6830 O.co2  45  GLU45      -0.2457
     52  N         55.1120  -40.4440   53.8230 N.3    91  GLU91      -0.1245
     53  CA        55.7040  -39.3930   52.9630 C.3    91  GLU91       0.1567
     54  C         55.7060  -38.0360   53.6620 C.2    91  GLU91       0.2260
     55  O         55.1570  -37.0630   53.1530 O.2    91  GLU91      -0.2867
     56  CB        55.0030  -39.3080   51.5980 C.3    91  GLU91       0.0388
     57  CG        55.1110  -40.5740   50.7030 C.3    91  GLU91       0.1160
     58  CD        56.5430  -40.9940   50.3840 C.2    91  GLU91       0.3649
     59  OE1       57.3550  -41.1650   51.2990 O.co2  91  GLU91      -0.2457
     60  OE2       56.8650  -41.1820   49.1970 O.co2  91  GLU91      -0.2457
     61  N         61.7310  -41.2660   53.0260 N.3   122  ALA122     -0.1245
     62  CA        63.1340  -41.4770   52.6610 C.3   122  ALA122      0.1562
     63  C         63.9930  -40.2820   53.0380 C.2   122  ALA122      0.2260
     64  O         65.1980  -40.4120   53.2600 O.2   122  ALA122     -0.2867
     65  CB        63.2570  -41.7570   51.1650 C.3   122  ALA122      0.0290
     66  N         55.9430  -39.6420   44.3230 N.3   219  MET219     -0.1245
     67  CA        55.6120  -40.4970   45.4670 C.3   219  MET219      0.1570
     68  C         54.6230  -41.5980   45.1960 C.2   219  MET219      0.2261
     69  O         54.7980  -42.7110   45.7180 O.2   219  MET219     -0.2867
     70  CB        55.2670  -39.6970   46.7500 C.3   219  MET219      0.0387
     71  CG        54.4110  -38.4670   46.5860 C.3   219  MET219      0.0595
     72  SD        54.0230  -37.6050   48.1540 S.3   219  MET219     -0.1393
     73  CE        55.5920  -36.9740   48.6710 C.3   219  MET219      0.0692
     74  N         55.0810  -46.6360   41.2900 N.3   222  ASN222     -0.1240
     75  CA        56.1020  -47.6710   41.1420 C.3   222  ASN222      0.1653
     76  C         56.1850  -48.1350   39.6860 C.2   222  ASN222      0.2266
     77  O         55.1890  -48.5490   39.0880 O.2   222  ASN222     -0.2867
     78  CB        55.8020  -48.8800   42.0410 C.3   222  ASN222      0.1155
     79  CG        56.4810  -48.7950   43.3970 C.2   222  ASN222      0.2627
     80  OD1       56.8660  -47.7180   43.8560 O.2   222  ASN222     -0.2716
     81  ND2       56.6260  -49.9500   44.0570 N.am  222  ASN222     -0.0877
     82  N         63.4880  -38.7140   45.5580 N.3   259  GLN259     -0.1245
     83  CA        62.2670  -39.4130   45.1930 C.3   259  GLN259      0.1566
     84  C         62.3050  -39.8310   43.7210 C.2   259  GLN259      0.2260
     85  O         61.9190  -40.9510   43.3760 O.2   259  GLN259     -0.2867
     86  CB        61.0140  -38.5650   45.4760 C.3   259  GLN259      0.0367
     87  CG        60.6530  -38.3680   46.9670 C.3   259  GLN259      0.0905
     88  CD        60.3520  -39.6750   47.7000 C.2   259  GLN259      0.2608
     89  OE1       61.1190  -40.0870   48.5610 O.2   259  GLN259     -0.2717
     90  NE2       59.2400  -40.3320   47.3510 N.am  259  GLN259     -0.0878
     91  N         62.8940  -43.9350   41.9370 N.3   263  ARG263     -0.1245
     92  CA        62.0330  -44.7520   41.0720 C.3   263  ARG263      0.1563
     93  C         62.7750  -45.9780   40.5230 C.2   263  ARG263      0.2260
     94  O         62.1500  -46.9810   40.1820 O.2   263  ARG263     -0.2867
     95  CB        61.4260  -43.9470   39.8980 C.3   263  ARG263      0.0307
     96  CG        60.4680  -42.7650   40.2140 C.3   263  ARG263      0.0489
     97  CD        59.4060  -43.0430   41.2910 C.3   263  ARG263      0.2205
     98  NE        59.9540  -42.7930   42.6270 N.pl3 263  ARG263     -0.0865
     99  CZ        59.6330  -43.4850   43.7190 C.cat 263  ARG263      0.5346
    100  NH1       58.7390  -44.4680   43.6610 N.pl3 263  ARG263      0.1354
    101  NH2       60.2070  -43.1800   44.8770 N.pl3 263  ARG263      0.1354
    102  N         65.5860  -50.4680   42.3510 N.3   266  ARG266     -0.1245
    103  CA        64.7690  -51.1080   43.3650 C.3   266  ARG266      0.1563
    104  C         64.6530  -52.6160   43.3050 C.2   266  ARG266      0.2260
    105  O         64.0440  -53.2090   44.1670 O.2   266  ARG266     -0.2867
    106  CB        63.4100  -50.4080   43.5220 C.3   266  ARG266      0.0307
    107  CG        62.5980  -50.2350   42.2800 C.3   266  ARG266      0.0489
    108  CD        61.1880  -49.7460   42.6500 C.3   266  ARG266      0.2205
    109  NE        61.2580  -48.4670   43.3300 N.pl3 266  ARG266     -0.0865
    110  CZ        60.6880  -48.1710   44.4960 C.cat 266  ARG266      0.5346
    111  NH1       59.9510  -49.0550   45.1540 N.pl3 266  ARG266      0.1354
    112  NH2       60.8540  -46.9550   44.9910 N.pl3 266  ARG266      0.1354
@<TRIPOS>BOND
     1    77    76    2
     2    76    75    1
     3    95    96    1
     4    95    92    1
     5    94    93    2
     6    96    97    1
     7    93    92    1
     8    92    91    1
     9    75    74    1
    10    75    78    1
    11    97    98    1
    12    78    79    1
    13   107   108    1
    14   107   106    1
    15   102   103    1
    16    98    99    2
    17   108   109    1
    18   104   103    1
    19   104   105    2
    20   109   110    2
    21   103   106    1
    22    85    84    2
    23    79    80    2
    24    79    81   am
    25   100    99    1
    26    99   101    1
    27    84    83    1
    28    66    67    1
    29   110   112    1
    30   110   111    1
    31    51    49   ar
    32    83    86    1
    33    83    82    1
    34    68    67    1
    35    68    69    2
    36    67    70    1
    37    86    87    1
    38    49    48    1
    39    49    50   ar
    40    48    47    1
    41    71    70    1
    42    71    72    1
    43    87    88    1
    44     5     6    1
    45     5     2    1
    46    90    88   am
    47    47    44    1
    48    88    89    2
    49    43    44    1
    50     6     7    1
    51    41    40    1
    52    44    45    1
    53     9     8    1
    54     9    10    1
    55     8     3   am
    56     4     3    2
    57    72    73    1
    58     3     2    1
    59    40    42    1
    60    40    39    2
    61    38    39    1
    62    38    37    1
    63     2     1    1
    64     7     1    1
    65    11    10    2
    66    60    58   ar
    67    45    46    2
    68    37    36    1
    69    58    57    1
    70    58    59   ar
    71    36    33    1
    72    57    56    1
    73    65    62    1
    74    31    29    1
    75    24    23    1
    76    12    13    1
    77    29    30    1
    78    29    26    1
    79    56    53    1
    80    13    14    1
    81    33    32    1
    82    33    34    1
    83    32    27   am
    84    23    22    1
    85    62    61    1
    86    62    63    1
    87    27    26    1
    88    27    28    2
    89    26    25    1
    90    14    16   am
    91    14    15    2
    92    25    18   am
    93    16    17    1
    94    53    54    1
    95    53    52    1
    96    34    35    2
    97    63    64    2
    98    22    21    1
    99    55    54    2
   100    20    21    1
   101    20    17    1
   102    17    18    1
   103    18    19    2
