@<TRIPOS>MOLECULE
tmp/2v6kA00.pdb
 198 192 0 0 0
SMALL
GASTEIGER

@<TRIPOS>ATOM
      1  N         -3.0310   10.5870   58.6100 N.3     8  PHE8       -0.1241
      2  CA        -2.3700    9.9990   57.4500 C.3     8  PHE8        0.1605
      3  C         -0.8720   10.1280   57.6530 C.2     8  PHE8        0.2264
      4  O         -0.4040   11.1090   58.2240 O.2     8  PHE8       -0.2867
      5  CB        -2.8340   10.7510   56.1980 C.3     8  PHE8        0.0534
      6  CG        -2.2750   10.2280   54.8910 C.ar    8  PHE8       -0.0203
      7  CD1       -2.6370    8.9800   54.3870 C.ar    8  PHE8       -0.0042
      8  CD2       -1.4300   11.0290   54.1330 C.ar    8  PHE8       -0.0042
      9  CE1       -2.1400    8.5370   53.1510 C.ar    8  PHE8       -0.0003
     10  CE2       -0.9270   10.5980   52.9070 C.ar    8  PHE8       -0.0003
     11  CZ        -1.2840    9.3500   52.4140 C.ar    8  PHE8       -0.0000
     12  N          1.8360   10.6730   55.6440 N.3    10  ARG10      -0.1231
     13  CA         2.5090   11.7470   54.9350 C.3    10  ARG10       0.1694
     14  C          1.5890   12.9620   54.9460 C.2    10  ARG10       0.2593
     15  O          0.9970   13.3520   53.9250 O.2    10  ARG10      -0.2718
     16  CB         2.8210   11.2930   53.5080 C.3    10  ARG10       0.0321
     17  CG         3.8270   12.1540   52.7640 C.3    10  ARG10       0.0489
     18  CD         3.8760   11.7850   51.2760 C.3    10  ARG10       0.2205
     19  NE         2.5730   11.9770   50.6400 N.pl3  10  ARG10      -0.0865
     20  CZ         1.8710   11.0250   50.0280 C.cat  10  ARG10       0.5346
     21  NH1        2.3460    9.7870   49.9180 N.pl3  10  ARG10       0.1354
     22  NH2        0.6920   11.3230   49.5000 N.pl3  10  ARG10       0.1354
     23  N          1.4540   13.5370   56.1310 N.am   11  SER11      -0.1938
     24  CA         0.5800   14.6720   56.3630 C.3    11  SER11       0.2055
     25  C          1.2050   15.5460   57.4280 C.2    11  SER11       0.2644
     26  O          1.4400   15.0840   58.5470 O.2    11  SER11      -0.2714
     27  CB        -0.7910   14.1880   56.8320 C.3    11  SER11       0.2130
     28  OG        -1.4950   15.2230   57.4920 O.3    11  SER11      -0.2179
     29  N          1.4790   16.7990   57.0810 N.am   12  GLY12      -0.1939
     30  CA         2.1360   17.7330   57.9880 C.3    12  GLY12       0.2014
     31  C          1.3520   18.0000   59.2550 C.2    12  GLY12       0.2639
     32  O          1.9180   18.0050   60.3420 O.2    12  GLY12      -0.2714
     33  N          0.0470   18.2300   59.1230 N.am   13  THR13      -0.1950
     34  CA        -0.7850   18.5090   60.2930 C.3    13  THR13       0.1897
     35  C         -0.9780   17.2540   61.1360 C.2    13  THR13       0.2313
     36  O         -1.1010   17.3450   62.3540 O.2    13  THR13      -0.2863
     37  CB        -2.1500   19.0770   59.9140 C.3    13  THR13       0.1794
     38  OG1       -2.7490   18.2110   58.9390 O.3    13  THR13      -0.2208
     39  CG2       -2.0150   20.4800   59.3390 C.3    13  THR13       0.0378
     40  N          2.3610   16.9270   62.9710 N.3    16  ARG16      -0.1245
     41  CA         2.3380   17.9550   64.0100 C.3    16  ARG16       0.1563
     42  C          1.6260   17.4660   65.2750 C.2    16  ARG16       0.2260
     43  O          2.1530   17.5720   66.3900 O.2    16  ARG16      -0.2867
     44  CB         1.6480   19.1930   63.4260 C.3    16  ARG16       0.0307
     45  CG         1.5690   20.4320   64.3070 C.3    16  ARG16       0.0489
     46  CD         0.5290   21.3870   63.7510 C.3    16  ARG16       0.2205
     47  NE         0.9350   21.9120   62.4490 N.pl3  16  ARG16      -0.0865
     48  CZ         0.1630   22.6610   61.6670 C.cat  16  ARG16       0.5346
     49  NH1       -1.0860   22.9430   62.0280 N.pl3  16  ARG16       0.1354
     50  NH2        0.6360   23.1200   60.5140 N.pl3  16  ARG16       0.1354
     51  N         -5.4210    9.7970   52.1380 N.3    35  LEU35      -0.1245
     52  CA        -5.6590   11.0160   51.3730 C.3    35  LEU35       0.1561
     53  C         -5.4430   10.8330   49.8790 C.2    35  LEU35       0.2260
     54  O         -6.1030   11.4850   49.0740 O.2    35  LEU35      -0.2867
     55  CB        -4.7860   12.1570   51.8930 C.3    35  LEU35       0.0270
     56  CG        -4.8720   12.4280   53.3970 C.3    35  LEU35       0.0019
     57  CD1       -3.9590   13.5720   53.7500 C.3    35  LEU35       0.0001
     58  CD2       -6.2940   12.7310   53.8360 C.3    35  LEU35       0.0001
     59  N        -10.7830   11.0660   52.7270 N.3    40  HIS40      -0.1226
     60  CA       -11.2580   12.2000   53.5050 C.3    40  HIS40       0.1752
     61  C        -12.4180   12.9240   52.8380 C.2    40  HIS40       0.2595
     62  O        -13.1480   13.6570   53.5050 O.2    40  HIS40      -0.2718
     63  CB       -10.1160   13.1720   53.8000 C.3    40  HIS40       0.0759
     64  CG        -9.4620   13.7460   52.5820 C.ar   40  HIS40       0.0818
     65  ND1       -8.8950   12.9650   51.5960 N.ar   40  HIS40      -0.2268
     66  CD2       -9.2400   15.0320   52.2200 C.ar   40  HIS40       0.1154
     67  CE1       -8.3700   13.7470   50.6680 C.ar   40  HIS40       0.1986
     68  NE2       -8.5640   15.0050   51.0240 N.ar   40  HIS40      -0.2212
     69  N        -12.5960   12.6980   51.5360 N.am   41  LEU41      -0.1980
     70  CA       -13.6370   13.3800   50.7720 C.3    41  LEU41       0.1596
     71  C        -14.9170   12.5520   50.6760 C.2    41  LEU41       0.2287
     72  O        -15.8800   12.9620   50.0180 O.2    41  LEU41      -0.2864
     73  CB       -13.1220   13.7680   49.3790 C.3    41  LEU41       0.0297
     74  CG       -11.8720   14.6600   49.3520 C.3    41  LEU41       0.0022
     75  CD1      -11.4480   14.9570   47.9260 C.3    41  LEU41       0.0001
     76  CD2      -12.0930   15.9610   50.1180 C.3    41  LEU41       0.0001
     77  N        -10.8600   17.3870   56.4230 N.3    53  LEU53      -0.1231
     78  CA        -9.4020   17.4620   56.4640 C.3    53  LEU53       0.1693
     79  C         -8.9010   16.6580   57.6520 C.2    53  LEU53       0.2592
     80  O         -9.6660   16.3560   58.5760 O.2    53  LEU53      -0.2718
     81  CB        -8.9340   18.9140   56.6000 C.3    53  LEU53       0.0284
     82  CG        -9.3700   19.8930   55.5040 C.3    53  LEU53       0.0019
     83  CD1       -9.0710   21.3310   55.9250 C.3    53  LEU53       0.0001
     84  CD2       -8.7120   19.5710   54.1650 C.3    53  LEU53       0.0001
     85  N         -7.6210   16.3030   57.6250 N.am   54  VAL54      -0.1966
     86  CA        -7.0140   15.6030   58.7590 C.3    54  VAL54       0.1712
     87  C         -6.0020   16.5050   59.4700 C.2    54  VAL54       0.2458
     88  O         -5.4440   17.4170   58.8560 O.2    54  VAL54      -0.2730
     89  CB        -6.3720   14.2410   58.3500 C.3    54  VAL54       0.0289
     90  CG1       -7.4350   13.2790   57.8040 C.3    54  VAL54       0.0023
     91  CG2       -5.2300   14.4300   57.3490 C.3    54  VAL54       0.0023
     92  N         -5.7610   16.2670   60.7690 N.am   55  PRO55      -0.2727
     93  CA        -6.3150   15.2220   61.6230 C.3    55  PRO55       0.1402
     94  C         -7.6400   15.5740   62.2890 C.2    55  PRO55       0.2269
     95  O         -8.0240   16.7430   62.3550 O.2    55  PRO55      -0.2865
     96  CB        -5.2300   15.0730   62.6920 C.3    55  PRO55       0.0296
     97  CG        -4.7450   16.4860   62.8850 C.3    55  PRO55       0.0237
     98  CD        -4.7700   17.0890   61.4920 C.3    55  PRO55       0.0939
     99  N         -9.1120   20.6420   63.9800 N.3    66  GLN66      -0.1231
    100  CA        -8.1550   21.7580   63.9760 C.3    66  GLN66       0.1698
    101  C         -6.9410   21.5070   64.8590 C.2    66  GLN66       0.2593
    102  O         -6.9750   21.7420   66.0760 O.2    66  GLN66      -0.2718
    103  CB        -8.8270   23.0890   64.3160 C.3    66  GLN66       0.0381
    104  CG        -9.6490   23.6100   63.1550 C.3    66  GLN66       0.0905
    105  CD        -8.8030   23.9780   61.9550 C.2    66  GLN66       0.2608
    106  OE1       -7.6350   24.3710   62.0840 O.2    66  GLN66      -0.2717
    107  NE2       -9.3850   23.8390   60.7640 N.am   66  GLN66      -0.0878
    108  N         -5.8530   21.0430   64.2480 N.am   67  SER67      -0.1939
    109  CA        -4.6590   20.7330   65.0280 C.3    67  SER67       0.2040
    110  C         -4.2050   21.8620   65.9740 C.2    67  SER67       0.2485
    111  O         -3.7890   21.5620   67.0860 O.2    67  SER67      -0.2729
    112  CB        -3.5150   20.2010   64.1490 C.3    67  SER67       0.2129
    113  OG        -2.9540   21.1850   63.3030 O.3    67  SER67      -0.2179
    114  N         -4.2860   23.1520   65.5660 N.am   68  PRO68      -0.2726
    115  CA        -3.8530   24.1520   66.5520 C.3    68  PRO68       0.1402
    116  C         -4.6800   24.1390   67.8370 C.2    68  PRO68       0.2269
    117  O         -4.1260   24.2810   68.9370 O.2    68  PRO68      -0.2865
    118  CB        -4.0270   25.4770   65.8010 C.3    68  PRO68       0.0296
    119  CG        -3.8630   25.0860   64.3710 C.3    68  PRO68       0.0237
    120  CD        -4.6310   23.8000   64.2840 C.3    68  PRO68       0.0939
    121  N          1.6970   27.4590   60.9290 N.3   102  GLY102     -0.1225
    122  CA         0.3390   26.9440   60.8800 C.3   102  GLY102      0.1811
    123  C         -0.6170   27.7780   60.0550 C.2   102  GLY102      0.2280
    124  O         -1.5870   27.2500   59.5150 O.2   102  GLY102     -0.2866
    125  N          2.0010   26.2490   55.9790 N.3   106  HIS106     -0.1227
    126  CA         1.3550   24.9700   55.7240 C.3   106  HIS106      0.1737
    127  C          0.0930   25.0430   54.8410 C.2   106  HIS106      0.2438
    128  O         -0.0410   24.2640   53.8920 O.2   106  HIS106     -0.2733
    129  CB         1.0310   24.2110   57.0190 C.3   106  HIS106      0.0758
    130  CG         0.0890   23.0910   56.7680 C.ar  106  HIS106      0.0818
    131  ND1       -1.2800   23.2550   56.8090 N.ar  106  HIS106     -0.2268
    132  CD2        0.3120   21.8360   56.3110 C.ar  106  HIS106      0.1154
    133  CE1       -1.8590   22.1310   56.4260 C.ar  106  HIS106      0.1986
    134  NE2       -0.9160   21.2570   56.1200 N.ar  106  HIS106     -0.2212
    135  N         -0.8610   25.9300   55.1690 N.am  107  PRO107     -0.2729
    136  CA        -2.1140   25.8930   54.4060 C.3   107  PRO107      0.1401
    137  C         -1.9490   26.2190   52.9340 C.2   107  PRO107      0.2269
    138  O         -2.7520   25.7650   52.1120 O.2   107  PRO107     -0.2865
    139  CB        -2.9830   26.9540   55.0960 C.3   107  PRO107      0.0296
    140  CG        -2.4090   27.0260   56.4990 C.3   107  PRO107      0.0237
    141  CD        -0.9320   26.9000   56.2810 C.3   107  PRO107      0.0939
    142  N          0.3770   25.3310   50.8960 N.3   109  ASN109     -0.1225
    143  CA         0.9610   24.2350   50.1200 C.3   109  ASN109      0.1785
    144  C          0.2070   22.9230   50.2600 C.2   109  ASN109      0.2597
    145  O          0.6410   21.8820   49.7660 O.2   109  ASN109     -0.2718
    146  CB         2.4160   24.0210   50.5280 C.3   109  ASN109      0.1169
    147  CG         3.2900   25.2060   50.2050 C.2   109  ASN109      0.2627
    148  OD1        2.9280   26.0750   49.4030 O.2   109  ASN109     -0.2716
    149  ND2        4.4640   25.2500   50.8270 N.am  109  ASN109     -0.0877
    150  N         -0.9410   22.9860   50.9220 N.am  110  ASN110     -0.1960
    151  CA        -1.7700   21.8190   51.1920 C.3   110  ASN110      0.1819
    152  C         -2.2750   21.1940   49.8990 C.2   110  ASN110      0.2621
    153  O         -2.4480   21.8920   48.8940 O.2   110  ASN110     -0.2715
    154  CB        -2.9160   22.2930   52.0880 C.3   110  ASN110      0.1195
    155  CG        -3.8230   21.1840   52.5740 C.2   110  ASN110      0.2630
    156  OD1       -3.4410   20.0170   52.7090 O.2   110  ASN110     -0.2716
    157  ND2       -5.0580   21.5680   52.8680 N.am  110  ASN110     -0.0877
    158  N         -2.5150   19.8870   49.9320 N.am  111  ARG111     -0.1963
    159  CA        -2.9070   19.1120   48.7560 C.3   111  ARG111      0.1729
    160  C         -3.9830   19.7860   47.9080 C.2   111  ARG111      0.2616
    161  O         -3.8230   19.9120   46.6860 O.2   111  ARG111     -0.2715
    162  CB        -3.3570   17.7080   49.1900 C.3   111  ARG111      0.0348
    163  CG        -3.7970   16.7790   48.0560 C.3   111  ARG111      0.0492
    164  CD        -4.4170   15.4930   48.6020 C.3   111  ARG111      0.2205
    165  NE        -4.5070   14.4120   47.6140 N.pl3 111  ARG111     -0.0865
    166  CZ        -5.4870   14.2580   46.7240 C.cat 111  ARG111      0.5346
    167  NH1       -6.4820   15.1300   46.6420 N.pl3 111  ARG111      0.1354
    168  NH2       -5.4620   13.2250   45.8920 N.pl3 111  ARG111      0.1354
    169  N         -5.0720   20.2200   48.5390 N.am  112  ARG112     -0.1977
    170  CA        -6.2000   20.7900   47.7850 C.3   112  ARG112      0.1597
    171  C         -5.7860   22.0330   47.0020 C.2   112  ARG112      0.2287
    172  O         -6.3280   22.3070   45.9260 O.2   112  ARG112     -0.2864
    173  CB        -7.3710   21.1220   48.7190 C.3   112  ARG112      0.0334
    174  CG        -7.0280   22.1820   49.7540 C.3   112  ARG112      0.0492
    175  CD        -8.0840   22.3890   50.8240 C.3   112  ARG112      0.2205
    176  NE        -7.6950   23.5690   51.5950 N.pl3 112  ARG112     -0.0865
    177  CZ        -8.5240   24.4480   52.1420 C.cat 112  ARG112      0.5346
    178  NH1       -9.8410   24.2660   52.1140 N.pl3 112  ARG112      0.1354
    179  NH2       -8.0000   25.5090   52.7430 N.pl3 112  ARG112      0.1354
    180  N         -2.6480   22.6720   45.8310 N.3   114  LEU114     -0.1245
    181  CA        -1.8220   22.2270   44.7140 C.3   114  LEU114      0.1561
    182  C         -2.6660   21.6050   43.6130 C.2   114  LEU114      0.2260
    183  O         -2.3960   21.8110   42.4260 O.2   114  LEU114     -0.2867
    184  CB        -0.7420   21.2590   45.2050 C.3   114  LEU114      0.0270
    185  CG         0.1190   21.7730   46.3710 C.3   114  LEU114      0.0019
    186  CD1        1.2500   20.7900   46.6520 C.3   114  LEU114      0.0001
    187  CD2        0.6840   23.1600   46.1150 C.3   114  LEU114      0.0001
    188  N         10.6000   17.6050   50.8720 N.3   178  ARG178     -0.1245
    189  CA         9.7650   17.0130   49.8270 C.3   178  ARG178      0.1563
    190  C          9.7180   17.8960   48.5740 C.2   178  ARG178      0.2260
    191  O          9.7800   17.4030   47.4420 O.2   178  ARG178     -0.2867
    192  CB         8.3500   16.7810   50.3720 C.3   178  ARG178      0.0307
    193  CG         7.3370   16.2870   49.3580 C.3   178  ARG178      0.0489
    194  CD         5.9230   16.3980   49.9010 C.3   178  ARG178      0.2205
    195  NE         4.9410   15.9170   48.9340 N.pl3 178  ARG178     -0.0865
    196  CZ         3.6210   15.9860   49.0920 C.cat 178  ARG178      0.5346
    197  NH1        3.0940   16.5240   50.1860 N.pl3 178  ARG178      0.1354
    198  NH2        2.8240   15.5150   48.1470 N.pl3 178  ARG178      0.1354
@<TRIPOS>BOND
     1   183   182    2
     2   182   181    1
     3   181   184    1
     4   181   180    1
     5   184   185    1
     6   168   166    1
     7   172   171    2
     8   187   185    1
     9   185   186    1
    10   167   166    1
    11   161   160    2
    12   166   165    2
    13   171   170    1
    14   191   190    2
    15   165   164    1
    16   170   169    1
    17   170   173    1
    18   160   169   am
    19   160   159    1
    20    75    74    1
    21   163   164    1
    22   163   162    1
    23   198   196    1
    24   190   189    1
    25   173   174    1
    26   159   162    1
    27   159   158    1
    28   153   152    2
    29   195   196    2
    30   195   194    1
    31    54    53    2
    32   196   197    1
    33    74    73    1
    34    74    76    1
    35   193   194    1
    36   193   192    1
    37    73    70    1
    38   148   147    2
    39    22    20    1
    40   174   175    1
    41   145   144    2
    42   189   192    1
    43   189   188    1
    44    53    52    1
    45   152   158   am
    46   152   151    1
    47    21    20    1
    48    72    71    2
    49    20    19    2
    50   143   144    1
    51   143   146    1
    52   143   142    1
    53   147   146    1
    54   147   149   am
    55   144   150   am
    56    19    18    1
    57    67    68   ar
    58    67    65   ar
    59    71    70    1
    60    70    69    1
    61   175   176    1
    62   150   151    1
    63    68    66   ar
    64   151   154    1
    65    18    17    1
    66    52    55    1
    67    52    51    1
    68    69    61   am
    69   176   177    2
    70    65    64   ar
    71    55    56    1
    72   154   155    1
    73   138   137    2
    74   178   177    1
    75   177   179    1
    76    66    64   ar
    77    11    10   ar
    78    11     9   ar
    79   155   156    2
    80   155   157   am
    81    64    63    1
    82    59    60    1
    83    17    16    1
    84    61    62    2
    85    61    60    1
    86    10     8   ar
    87   137   136    1
    88     9     7   ar
    89    56    57    1
    90    56    58    1
    91    60    63    1
    92    16    13    1
    93   128   127    2
    94    15    14    2
    95     8     6   ar
    96    84    82    1
    97     7     6   ar
    98   136   139    1
    99   136   135    1
   100   127   135   am
   101   127   126    1
   102     6     5    1
   103    13    14    1
   104    13    12    1
   105    14    23   am
   106   139   140    1
   107   135   141    1
   108    82    83    1
   109    82    81    1
   110   126   125    1
   111   126   129    1
   112   134   132   ar
   113   134   133   ar
   114    23    24    1
   115     5     2    1
   116   141   140    1
   117   132   130   ar
   118    24    27    1
   119    24    25    1
   120    77    78    1
   121   133   131   ar
   122    78    81    1
   123    78    79    1
   124   130   131   ar
   125   130   129    1
   126    27    28    1
   127    29    25   am
   128    29    30    1
   129    91    89    1
   130    25    26    2
   131     2     3    1
   132     2     1    1
   133    85    79   am
   134    85    86    1
   135    79    80    2
   136     3     4    2
   137    90    89    1
   138    30    31    1
   139    89    86    1
   140    86    87    1
   141    88    87    2
   142    38    37    1
   143    33    31   am
   144    33    34    1
   145    31    32    2
   146    39    37    1
   147    87    92   am
   148   124   123    2
   149    37    34    1
   150   123   122    1
   151    34    35    1
   152    50    48    1
   153   107   105   am
   154    92    98    1
   155    92    93    1
   156   122   121    1
   157    35    36    2
   158    98    97    1
   159    93    94    1
   160    93    96    1
   161    48    49    1
   162    48    47    2
   163   105   106    2
   164   105   104    1
   165    94    95    2
   166    47    46    1
   167    96    97    1
   168    40    41    1
   169   104   103    1
   170   113   112    1
   171    44    41    1
   172    44    45    1
   173    46    45    1
   174   100    99    1
   175   100   103    1
   176   100   101    1
   177    41    42    1
   178   112   109    1
   179   108   101   am
   180   108   109    1
   181   120   119    1
   182   120   114    1
   183   119   118    1
   184   101   102    2
   185   109   110    1
   186    42    43    2
   187   114   110   am
   188   114   115    1
   189   118   115    1
   190   110   111    2
   191   115   116    1
   192   116   117    2
