@<TRIPOS>MOLECULE
tmp/2v6mB00.pdb
 88 82 0 0 0
SMALL
GASTEIGER

@<TRIPOS>ATOM
      1  N         -6.6840   -6.7990   47.2910 N.3   136  ILE136     -0.1245
      2  CA        -6.4130   -6.9660   45.8540 C.3   136  ILE136      0.1561
      3  C         -4.9730   -6.6800   45.4170 C.2   136  ILE136      0.2260
      4  O         -4.4400   -7.3780   44.5600 O.2   136  ILE136     -0.2867
      5  CB        -7.3360   -6.1060   44.9660 C.3   136  ILE136      0.0252
      6  CG1       -7.2250   -4.6350   45.3580 C.3   136  ILE136      0.0019
      7  CG2       -8.7770   -6.6260   45.0510 C.3   136  ILE136      0.0019
      8  CD1       -7.7670   -3.6850   44.2950 C.3   136  ILE136      0.0001
      9  N         -2.8650   -9.8130   46.6780 N.3   139  THR139     -0.1203
     10  CA        -3.1520  -10.9690   45.8450 C.3   139  THR139      0.1994
     11  C         -2.4300  -10.8820   44.4940 C.2   139  THR139      0.2617
     12  O         -1.8360  -11.8560   44.0270 O.2   139  THR139     -0.2717
     13  CB        -4.6690  -11.1020   45.6060 C.3   139  THR139      0.1784
     14  OG1       -5.3070  -11.5230   46.8190 O.3   139  THR139     -0.2211
     15  CG2       -4.9490  -12.0990   44.4910 C.3   139  THR139      0.0376
     16  N         -2.4720   -9.7150   43.8680 N.am  140  ALA140     -0.1979
     17  CA        -1.8370   -9.5510   42.5670 C.3   140  ALA140      0.1597
     18  C         -0.3050   -9.6090   42.6640 C.2   140  ALA140      0.2287
     19  O          0.3660  -10.1460   41.7820 O.2   140  ALA140     -0.2864
     20  CB        -2.2760   -8.2310   41.9280 C.3   140  ALA140      0.0319
     21  N          0.6730  -13.2120   43.0530 N.3   143  ARG143     -0.1245
     22  CA         0.6470  -13.8890   41.7580 C.3   143  ARG143      0.1563
     23  C          1.8100  -13.4420   40.8700 C.2   143  ARG143      0.2260
     24  O          2.3960  -14.2500   40.1510 O.2   143  ARG143     -0.2867
     25  CB        -0.6690  -13.6060   41.0360 C.3   143  ARG143      0.0307
     26  CG        -1.9000  -14.0150   41.8090 C.3   143  ARG143      0.0489
     27  CD        -3.1600  -13.8250   40.9840 C.3   143  ARG143      0.2205
     28  NE        -4.3230  -14.3200   41.7100 N.pl3 143  ARG143     -0.0865
     29  CZ        -5.4980  -14.5950   41.1530 C.cat 143  ARG143      0.5346
     30  NH1       -5.6720  -14.4330   39.8450 N.pl3 143  ARG143      0.1354
     31  NH2       -6.4990  -15.0390   41.9030 N.pl3 143  ARG143      0.1354
     32  N         -1.4380  -14.4890   34.6430 N.3   155  GLN155     -0.1245
     33  CA        -2.8400  -14.8520   34.4650 C.3   155  GLN155      0.1566
     34  C         -3.0990  -16.3580   34.5840 C.2   155  GLN155      0.2260
     35  O         -4.2340  -16.7720   34.7740 O.2   155  GLN155     -0.2867
     36  CB        -3.3450  -14.3470   33.1150 C.3   155  GLN155      0.0367
     37  CG        -2.2340  -14.1220   32.1200 C.3   155  GLN155      0.0905
     38  CD        -1.5580  -12.7710   32.2760 C.2   155  GLN155      0.2608
     39  OE1       -2.2200  -11.7310   32.2770 O.2   155  GLN155     -0.2717
     40  NE2       -0.2350  -12.7810   32.4070 N.am  155  GLN155     -0.0878
     41  N         -9.5470   -0.6950   38.3550 N.3   230  ARG230     -0.1245
     42  CA        -9.9220   -2.0080   37.8400 C.3   230  ARG230      0.1563
     43  C        -11.2300   -2.4890   38.4720 C.2   230  ARG230      0.2260
     44  O        -12.0830   -3.0750   37.7940 O.2   230  ARG230     -0.2867
     45  CB        -8.8230   -3.0340   38.1090 C.3   230  ARG230      0.0307
     46  CG        -9.0640   -4.3660   37.4080 C.3   230  ARG230      0.0489
     47  CD        -9.1800   -4.1660   35.9070 C.3   230  ARG230      0.2205
     48  NE        -9.5040   -5.4140   35.2240 N.pl3 230  ARG230     -0.0865
     49  CZ       -10.7440   -5.8350   34.9920 C.cat 230  ARG230      0.5346
     50  NH1      -11.7820   -5.1020   35.3760 N.pl3 230  ARG230      0.1354
     51  NH2      -10.9470   -6.9920   34.3750 N.pl3 230  ARG230      0.1354
     52  N        -14.0830   -0.5980   36.9310 N.3   233  ARG233     -0.1245
     53  CA       -14.3540   -1.1770   35.6270 C.3   233  ARG233      0.1563
     54  C        -15.2500   -2.4170   35.7460 C.2   233  ARG233      0.2260
     55  O        -16.2080   -2.5800   34.9830 O.2   233  ARG233     -0.2867
     56  CB       -13.0360   -1.5470   34.9540 C.3   233  ARG233      0.0307
     57  CG       -13.2020   -2.1630   33.5780 C.3   233  ARG233      0.0489
     58  CD       -11.8540   -2.5180   32.9790 C.3   233  ARG233      0.2205
     59  NE       -11.9220   -3.7750   32.2490 N.pl3 233  ARG233     -0.0865
     60  CZ       -10.8920   -4.3370   31.6260 C.cat 233  ARG233      0.5346
     61  NH1       -9.6930   -3.7720   31.6800 N.pl3 233  ARG233      0.1354
     62  NH2      -11.0670   -5.4580   30.9450 N.pl3 233  ARG233      0.1354
     63  N        -13.7420  -12.3690   39.6000 N.3   242  VAL242     -0.1231
     64  CA       -13.3960  -12.7250   40.9690 C.3   242  VAL242      0.1692
     65  C        -12.2580  -11.8340   41.4640 C.2   242  VAL242      0.2592
     66  O        -11.2210  -11.7290   40.8150 O.2   242  VAL242     -0.2718
     67  CB       -12.9650  -14.2090   41.0730 C.3   242  VAL242      0.0266
     68  CG1      -12.5860  -14.5490   42.5330 C.3   242  VAL242      0.0020
     69  CG2      -14.0960  -15.1150   40.5920 C.3   242  VAL242      0.0020
     70  N        -12.4700  -11.1920   42.6120 N.am  243  TYR243     -0.1962
     71  CA       -11.4750  -10.3160   43.2240 C.3   243  TYR243      0.1771
     72  C        -11.4690  -10.5220   44.7360 C.2   243  TYR243      0.2620
     73  O        -12.5290  -10.6700   45.3490 O.2   243  TYR243     -0.2715
     74  CB       -11.8140   -8.8490   42.9180 C.3   243  TYR243      0.0574
     75  CG       -11.7540   -8.4910   41.4440 C.ar  243  TYR243     -0.0198
     76  CD1      -12.8730   -8.6370   40.6160 C.ar  243  TYR243     -0.0009
     77  CD2      -10.5770   -7.9970   40.8800 C.ar  243  TYR243     -0.0009
     78  CE1      -12.8150   -8.2970   39.2600 C.ar  243  TYR243      0.0417
     79  CE2      -10.5120   -7.6540   39.5310 C.ar  243  TYR243      0.0417
     80  CZ       -11.6360   -7.8040   38.7300 C.ar  243  TYR243      0.1957
     81  OH       -11.5760   -7.4320   37.4070 O.3   243  TYR243     -0.2866
     82  N        -10.2850  -10.5200   45.3470 N.am  244  THR244     -0.1951
     83  CA       -10.2290  -10.6430   46.7980 C.3   244  THR244      0.1897
     84  C        -10.4650   -9.2840   47.4350 C.2   244  THR244      0.2313
     85  O         -9.5290   -8.5570   47.7660 O.2   244  THR244     -0.2863
     86  CB        -8.8790  -11.2430   47.2700 C.3   244  THR244      0.1794
     87  OG1       -7.7820  -10.4510   46.7920 O.3   244  THR244     -0.2208
     88  CG2       -8.7320  -12.6540   46.7440 C.3   244  THR244      0.0378
@<TRIPOS>BOND
     1    62    60    1
     2    60    61    1
     3    60    59    2
     4    37    38    1
     5    37    36    1
     6    59    58    1
     7    38    39    2
     8    38    40   am
     9    58    57    1
    10    36    33    1
    11    57    56    1
    12    51    49    1
    13    33    34    1
    14    33    32    1
    15    34    35    2
    16    56    53    1
    17    55    54    2
    18    49    48    2
    19    49    50    1
    20    48    47    1
    21    53    54    1
    22    53    52    1
    23    47    46    1
    24    81    80    1
    25    46    45    1
    26    44    43    2
    27    42    45    1
    28    42    41    1
    29    42    43    1
    30    80    78   ar
    31    80    79   ar
    32    78    76   ar
    33    79    77   ar
    34    63    64    1
    35    30    29    1
    36    24    23    2
    37    69    67    1
    38    76    75   ar
    39    66    65    2
    40    23    22    1
    41    77    75   ar
    42    64    67    1
    43    64    65    1
    44    27    28    1
    45    27    26    1
    46    25    22    1
    47    25    26    1
    48    67    68    1
    49    29    28    2
    50    29    31    1
    51    75    74    1
    52    65    70   am
    53    22    21    1
    54    19    18    2
    55    20    17    1
    56    17    18    1
    57    17    16    1
    58    70    71    1
    59    74    71    1
    60    71    72    1
    61    16    11   am
    62    12    11    2
    63     8     6    1
    64    15    13    1
    65    11    10    1
    66     4     3    2
    67    72    82   am
    68    72    73    2
    69     5     7    1
    70     5     6    1
    71     5     2    1
    72    82    83    1
    73     3     2    1
    74    13    10    1
    75    13    14    1
    76    10     9    1
    77     2     1    1
    78    88    86    1
    79    87    86    1
    80    83    86    1
    81    83    84    1
    82    84    85    2
