@<TRIPOS>MOLECULE
tmp/2v73A00.pdb
 101 96 0 0 0
SMALL
GASTEIGER

@<TRIPOS>ATOM
      1  N         15.0080    6.0700   45.9710 N.3    47  ILE47      -0.1245
      2  CA        16.3900    5.7010   45.6860 C.3    47  ILE47       0.1561
      3  C         16.4500    4.2390   45.2310 C.2    47  ILE47       0.2260
      4  O         16.0690    3.3290   45.9700 O.2    47  ILE47      -0.2867
      5  CB        17.3100    5.9320   46.9170 C.3    47  ILE47       0.0252
      6  CG1       17.2980    7.4160   47.3290 C.3    47  ILE47       0.0019
      7  CG2       18.7450    5.3970   46.6470 C.3    47  ILE47       0.0019
      8  CD1       17.9660    7.7070   48.6770 C.3    47  ILE47       0.0001
      9  N         26.3850   -2.0850   55.8500 N.3    60  ASN60      -0.1240
     10  CA        26.9950   -0.9150   55.2210 C.3    60  ASN60       0.1653
     11  C         28.2950   -1.2520   54.5000 C.2    60  ASN60       0.2266
     12  O         29.2710   -0.5040   54.5800 O.2    60  ASN60      -0.2867
     13  CB        27.2650    0.1840   56.2640 C.3    60  ASN60       0.1155
     14  CG        26.0880    0.4320   57.2020 C.2    60  ASN60       0.2627
     15  OD1       26.2750    0.5780   58.4120 O.2    60  ASN60      -0.2716
     16  ND2       24.8770    0.4960   56.6510 N.am   60  ASN60      -0.0877
     17  N         23.1380    4.5790   42.1220 N.3    66  TYR66      -0.1241
     18  CA        21.6990    4.7610   42.2650 C.3    66  TYR66       0.1605
     19  C         21.0940    5.9370   41.4970 C.2    66  TYR66       0.2264
     20  O         21.7790    6.9080   41.1340 O.2    66  TYR66      -0.2867
     21  CB        21.3210    4.8620   43.7480 C.3    66  TYR66       0.0534
     22  CG        21.6730    6.1720   44.4000 C.ar   66  TYR66      -0.0201
     23  CD1       20.7820    7.2550   44.3520 C.ar   66  TYR66      -0.0009
     24  CD2       22.8880    6.3340   45.0730 C.ar   66  TYR66      -0.0009
     25  CE1       21.0900    8.4680   44.9460 C.ar   66  TYR66       0.0417
     26  CE2       23.2110    7.5430   45.6750 C.ar   66  TYR66       0.0417
     27  CZ        22.3020    8.6100   45.6110 C.ar   66  TYR66       0.1957
     28  OH        22.6050    9.8220   46.2060 O.3    66  TYR66      -0.2866
     29  N         27.3700    5.2250   46.1160 N.3    75  GLU75      -0.1245
     30  CA        27.9530    5.0390   47.4320 C.3    75  GLU75       0.1567
     31  C         29.0060    3.9520   47.3350 C.2    75  GLU75       0.2260
     32  O         28.8730    3.0160   46.5330 O.2    75  GLU75      -0.2867
     33  CB        26.8960    4.6340   48.4620 C.3    75  GLU75       0.0388
     34  CG        25.7350    5.6100   48.6290 C.3    75  GLU75       0.1160
     35  CD        24.8630    5.2720   49.8280 C.2    75  GLU75       0.3649
     36  OE1       25.1780    5.7340   50.9500 O.co2  75  GLU75      -0.2457
     37  OE2       23.8560    4.5560   49.6450 O.co2  75  GLU75      -0.2457
     38  N         30.7600    1.9610   50.5480 N.3    77  ARG77      -0.1245
     39  CA        30.7470    1.8630   52.0180 C.3    77  ARG77       0.1563
     40  C         31.4930    0.6360   52.5770 C.2    77  ARG77       0.2260
     41  O         31.7070   -0.3520   51.8700 O.2    77  ARG77      -0.2867
     42  CB        29.3070    1.9040   52.5390 C.3    77  ARG77       0.0307
     43  CG        28.5140    3.1470   52.1190 C.3    77  ARG77       0.0489
     44  CD        27.0690    3.1130   52.6100 C.3    77  ARG77       0.2205
     45  NE        26.9500    3.3180   54.0540 N.pl3  77  ARG77      -0.0865
     46  CZ        25.8030    3.3400   54.7310 C.cat  77  ARG77       0.5346
     47  NH1       24.6410    3.1670   54.1100 N.pl3  77  ARG77       0.1354
     48  NH2       25.8140    3.5360   56.0430 N.pl3  77  ARG77       0.1354
     49  N         29.9040    9.1220   49.5780 N.3    88  HIS88      -0.1241
     50  CA        28.6260    9.4390   48.9510 C.3    88  HIS88       0.1621
     51  C         28.7680   10.6760   48.0680 C.2    88  HIS88       0.2264
     52  O         28.9020   11.7910   48.5650 O.2    88  HIS88      -0.2867
     53  CB        27.5330    9.6320   50.0080 C.3    88  HIS88       0.0745
     54  CG        26.1540    9.7830   49.4400 C.ar   88  HIS88       0.0817
     55  ND1       25.0890   10.2330   50.1900 N.ar   88  HIS88      -0.2268
     56  CD2       25.6660    9.5500   48.1970 C.ar   88  HIS88       0.1154
     57  CE1       24.0040   10.2620   49.4380 C.ar   88  HIS88       0.1986
     58  NE2       24.3280    9.8550   48.2220 N.ar   88  HIS88      -0.2212
     59  N         21.5320   -6.4850   50.7790 N.3   147  ARG147     -0.1245
     60  CA        21.8900   -6.0910   52.1430 C.3   147  ARG147      0.1563
     61  C         21.3270   -7.0360   53.2040 C.2   147  ARG147      0.2260
     62  O         20.4660   -7.8780   52.9100 O.2   147  ARG147     -0.2867
     63  CB        21.4810   -4.6320   52.4140 C.3   147  ARG147      0.0307
     64  CG        22.2630   -3.6130   51.5750 C.3   147  ARG147      0.0489
     65  CD        21.7580   -2.1980   51.7770 C.3   147  ARG147      0.2205
     66  NE        22.3980   -1.5510   52.9190 N.pl3 147  ARG147     -0.0865
     67  CZ        22.0630   -0.3550   53.3930 C.cat 147  ARG147      0.5346
     68  NH1       21.0830    0.3400   52.8280 N.pl3 147  ARG147      0.1354
     69  NH2       22.7120    0.1460   54.4370 N.pl3 147  ARG147      0.1354
     70  N         17.7620   -3.8080   56.3040 N.3   151  TYR151     -0.1227
     71  CA        18.3070   -2.6230   55.6430 C.3   151  TYR151      0.1736
     72  C         17.7790   -2.4430   54.2160 C.2   151  TYR151      0.2595
     73  O         17.5500   -3.4210   53.4940 O.2   151  TYR151     -0.2718
     74  CB        19.8340   -2.6550   55.6660 C.3   151  TYR151      0.0548
     75  CG        20.4340   -2.0930   56.9400 C.ar  151  TYR151     -0.0200
     76  CD1       20.9410   -0.7950   56.9770 C.ar  151  TYR151     -0.0009
     77  CD2       20.4910   -2.8570   58.1140 C.ar  151  TYR151     -0.0009
     78  CE1       21.4980   -0.2650   58.1450 C.ar  151  TYR151      0.0417
     79  CE2       21.0430   -2.3380   59.2900 C.ar  151  TYR151      0.0417
     80  CZ        21.5450   -1.0420   59.2950 C.ar  151  TYR151      0.1957
     81  OH        22.0950   -0.5110   60.4410 O.3   151  TYR151     -0.2866
     82  N         17.5820   -1.1800   53.8360 N.am  152  ASN152     -0.1974
     83  CA        16.9760   -0.7920   52.5570 C.3   152  ASN152      0.1688
     84  C         17.8560   -1.1780   51.3730 C.2   152  ASN152      0.2292
     85  O         18.9940   -0.7270   51.2660 O.2   152  ASN152     -0.2864
     86  CB        16.6750    0.7210   52.5750 C.3   152  ASN152      0.1181
     87  CG        16.0420    1.2350   51.2840 C.2   152  ASN152      0.2629
     88  OD1       15.5600    0.4670   50.4470 O.2   152  ASN152     -0.2716
     89  ND2       16.0470    2.5530   51.1230 N.am  152  ASN152     -0.0877
     90  N         17.2960   -0.6740   48.1380 N.3   154  TYR154     -0.1241
     91  CA        17.1960    0.2570   47.0070 C.3   154  TYR154      0.1605
     92  C         16.6190   -0.4240   45.7770 C.2   154  TYR154      0.2264
     93  O         17.2190   -0.4190   44.6980 O.2   154  TYR154     -0.2867
     94  CB        18.5570    0.9010   46.6980 C.3   154  TYR154      0.0534
     95  CG        19.2990    1.3990   47.9160 C.ar  154  TYR154     -0.0201
     96  CD1       18.7410    2.3700   48.7540 C.ar  154  TYR154     -0.0009
     97  CD2       20.5620    0.9030   48.2310 C.ar  154  TYR154     -0.0009
     98  CE1       19.4260    2.8330   49.8750 C.ar  154  TYR154      0.0417
     99  CE2       21.2550    1.3580   49.3530 C.ar  154  TYR154      0.0417
    100  CZ        20.6810    2.3220   50.1670 C.ar  154  TYR154      0.1957
    101  OH        21.3620    2.7750   51.2720 O.3   154  TYR154     -0.2866
@<TRIPOS>BOND
     1    20    19    2
     2    19    18    1
     3    17    18    1
     4    18    21    1
     5    21    22    1
     6    23    22   ar
     7    23    25   ar
     8    22    24   ar
     9    93    92    2
    10    25    27   ar
    11    24    26   ar
    12     3     2    1
    13     3     4    2
    14    27    26   ar
    15    27    28    1
    16     2     1    1
    17     2     5    1
    18    92    91    1
    19    29    30    1
    20    32    31    2
    21     7     5    1
    22    94    91    1
    23    94    95    1
    24     5     6    1
    25    91    90    1
    26     6     8    1
    27    31    30    1
    28    30    33    1
    29    95    97   ar
    30    95    96   ar
    31    51    52    2
    32    51    50    1
    33    56    58   ar
    34    56    54   ar
    35    58    57   ar
    36    97    99   ar
    37    33    34    1
    38    34    35    1
    39    96    98   ar
    40    50    49    1
    41    50    53    1
    42    99   100   ar
    43    57    55   ar
    44    54    53    1
    45    54    55   ar
    46    37    35   ar
    47    35    36   ar
    48    98   100   ar
    49   100   101    1
    50    88    87    2
    51    38    39    1
    52    59    60    1
    53    89    87   am
    54    85    84    2
    55    87    86    1
    56    84    83    1
    57    64    65    1
    58    64    63    1
    59    65    66    1
    60    41    40    2
    61    39    42    1
    62    39    40    1
    63    43    42    1
    64    43    44    1
    65    60    63    1
    66    60    61    1
    67    83    86    1
    68    83    82    1
    69    44    45    1
    70    68    67    1
    71    62    61    2
    72    66    67    2
    73    67    69    1
    74    73    72    2
    75    82    72   am
    76    45    46    2
    77    47    46    1
    78    72    71    1
    79    11    12    2
    80    11    10    1
    81    46    48    1
    82    10     9    1
    83    10    13    1
    84    71    74    1
    85    71    70    1
    86    74    75    1
    87    13    14    1
    88    16    14   am
    89    75    76   ar
    90    75    77   ar
    91    76    78   ar
    92    14    15    2
    93    77    79   ar
    94    78    80   ar
    95    79    80   ar
    96    80    81    1
