@<TRIPOS>MOLECULE
tmp/2v77A02.pdb
 106 100 0 0 0
SMALL
GASTEIGER

@<TRIPOS>ATOM
      1  N         94.6250   32.2430   34.4480 N.3    36  ILE36      -0.1245
      2  CA        95.3930   31.0630   34.0790 C.3    36  ILE36       0.1561
      3  C         96.0270   30.4070   35.2990 C.2    36  ILE36       0.2260
      4  O         96.6820   31.0810   36.1040 O.2    36  ILE36      -0.2867
      5  CB        96.5430   31.4350   33.1270 C.3    36  ILE36       0.0252
      6  CG1       95.9940   32.1110   31.8720 C.3    36  ILE36       0.0019
      7  CG2       97.3440   30.1950   32.7670 C.3    36  ILE36       0.0019
      8  CD1       97.0750   32.7780   31.0470 C.3    36  ILE36       0.0001
      9  N         98.9170   28.3670   36.5580 N.3    38  ILE38      -0.1245
     10  CA       100.2270   27.9300   36.0860 C.3    38  ILE38       0.1561
     11  C        100.8490   26.8290   36.9380 C.2    38  ILE38       0.2260
     12  O        101.9440   26.3530   36.6380 O.2    38  ILE38      -0.2867
     13  CB       101.2280   29.1120   35.9850 C.3    38  ILE38       0.0252
     14  CG1      101.4620   29.7400   37.3620 C.3    38  ILE38       0.0019
     15  CG2      100.6940   30.1560   35.0140 C.3    38  ILE38       0.0019
     16  CD1      102.5920   30.7580   37.3710 C.3    38  ILE38       0.0001
     17  N         95.6330   37.2570   32.7300 N.3    51  LYS51      -0.1245
     18  CA        96.0490   37.6470   31.3910 C.3    51  LYS51       0.1561
     19  C         95.1280   38.7610   30.9150 C.2    51  LYS51       0.2260
     20  O         93.9090   38.6050   30.9200 O.2    51  LYS51      -0.2867
     21  CB        95.9480   36.4590   30.4250 C.3    51  LYS51       0.0271
     22  CG        96.1600   36.8250   28.9410 C.3    51  LYS51       0.0035
     23  CD        95.8910   35.6210   28.0360 C.3    51  LYS51       0.0206
     24  CE        96.0390   35.9780   26.5630 C.3    51  LYS51       0.1093
     25  NZ        95.8630   34.7630   25.6950 N.3    51  LYS51      -0.1314
     26  N         94.7070   39.3150   19.1440 N.3    56  GLY56      -0.1210
     27  CA        95.9340   38.8050   18.5670 C.3    56  GLY56       0.1956
     28  C         96.2480   37.3370   18.7590 C.2    56  GLY56       0.2613
     29  O         95.4480   36.5510   19.2790 O.2    56  GLY56      -0.2717
     30  N         97.4400   36.9700   18.3090 N.am   57  SER57      -0.1938
     31  CA        97.9410   35.6120   18.4210 C.3    57  SER57       0.2055
     32  C         99.3710   35.6790   18.9400 C.2    57  SER57       0.2642
     33  O        100.2660   36.1880   18.2580 O.2    57  SER57      -0.2714
     34  CB        97.9290   34.9190   17.0580 C.3    57  SER57       0.2130
     35  OG        98.5530   33.6480   17.1460 O.3    57  SER57      -0.2179
     36  N         99.5810   35.1730   20.1510 N.am   58  LYS58      -0.1977
     37  CA       100.9060   35.1640   20.7560 C.3    58  LYS58       0.1596
     38  C        101.5580   36.5430   20.7350 C.2    58  LYS58       0.2287
     39  O        102.7250   36.6840   20.3620 O.2    58  LYS58      -0.2864
     40  CB       101.8010   34.1520   20.0290 C.3    58  LYS58       0.0298
     41  CG       101.2990   32.7190   20.1090 C.3    58  LYS58       0.0038
     42  CD       102.2980   31.7420   19.5050 C.3    58  LYS58       0.0206
     43  CE       101.8720   30.3050   19.7670 C.3    58  LYS58       0.1093
     44  NZ       102.8530   29.3250   19.2270 N.3    58  LYS58      -0.1314
     45  N        100.2220   42.1870   25.4760 N.3   104  ASP104     -0.1239
     46  CA        99.3670   41.4720   26.4200 C.3   104  ASP104      0.1674
     47  C        100.0750   41.7040   27.7470 C.2   104  ASP104      0.2266
     48  O        101.2810   41.9510   27.7620 O.2   104  ASP104     -0.2867
     49  CB        99.3690   39.9640   26.1630 C.3   104  ASP104      0.1410
     50  CG        98.4100   39.5420   25.0660 C.2   104  ASP104      0.3668
     51  OD1       97.5810   40.3630   24.6290 O.co2 104  ASP104     -0.2456
     52  OD2       98.4830   38.3640   24.6600 O.co2 104  ASP104     -0.2456
     53  N        100.6150   39.9440   31.6180 N.3   106  PHE106     -0.1241
     54  CA       100.4010   38.7980   32.4990 C.3   106  PHE106      0.1605
     55  C        100.7780   39.2760   33.8970 C.2   106  PHE106      0.2264
     56  O        101.8990   39.7310   34.1310 O.2   106  PHE106     -0.2867
     57  CB       101.2550   37.6030   32.0690 C.3   106  PHE106      0.0534
     58  CG       100.8050   36.9860   30.7740 C.ar  106  PHE106     -0.0203
     59  CD1      101.2390   37.5010   29.5580 C.ar  106  PHE106     -0.0042
     60  CD2       99.9010   35.9280   30.7720 C.ar  106  PHE106     -0.0042
     61  CE1      100.7780   36.9730   28.3510 C.ar  106  PHE106     -0.0003
     62  CE2       99.4310   35.3880   29.5670 C.ar  106  PHE106     -0.0003
     63  CZ        99.8720   35.9150   28.3560 C.ar  106  PHE106     -0.0000
     64  N        106.9590   26.9070   38.1330 N.3   178  SER178     -0.1217
     65  CA       105.7270   27.2200   37.4150 C.3   178  SER178      0.1889
     66  C        105.9130   28.4520   36.5210 C.2   178  SER178      0.2288
     67  O        105.4100   28.4940   35.3980 O.2   178  SER178     -0.2866
     68  CB       104.5760   27.4570   38.4040 C.3   178  SER178      0.2089
     69  OG       104.2680   26.2750   39.1300 O.3   178  SER178     -0.2183
     70  N        108.3300   27.5530   33.5810 N.3   181  ASP181     -0.1225
     71  CA       107.6170   26.8030   32.5520 C.3   181  ASP181      0.1805
     72  C        106.7180   27.7130   31.7210 C.2   181  ASP181      0.2597
     73  O        106.6160   27.5550   30.4950 O.2   181  ASP181     -0.2718
     74  CB       106.7760   25.6830   33.1820 C.3   181  ASP181      0.1424
     75  CG       107.6240   24.5370   33.7140 C.2   181  ASP181      0.3668
     76  OD1      108.8450   24.5150   33.4440 O.co2 181  ASP181     -0.2456
     77  OD2      107.0640   23.6490   34.3960 O.co2 181  ASP181     -0.2456
     78  N        106.0700   28.6660   32.3840 N.am  182  PHE182     -0.1976
     79  CA       105.1900   29.5960   31.6930 C.3   182  PHE182      0.1639
     80  C        105.9570   30.4800   30.7180 C.2   182  PHE182      0.2290
     81  O        105.5390   30.6730   29.5720 O.2   182  PHE182     -0.2864
     82  CB       104.4330   30.4830   32.6930 C.3   182  PHE182      0.0560
     83  CG       103.7080   31.6280   32.0410 C.ar  182  PHE182     -0.0200
     84  CD1      104.3550   32.8410   31.8180 C.ar  182  PHE182     -0.0042
     85  CD2      102.4100   31.4640   31.5670 C.ar  182  PHE182     -0.0042
     86  CE1      103.7240   33.8710   31.1230 C.ar  182  PHE182     -0.0003
     87  CE2      101.7680   32.4860   30.8700 C.ar  182  PHE182     -0.0003
     88  CZ       102.4280   33.6930   30.6460 C.ar  182  PHE182     -0.0000
     89  N        107.0830   28.4460   27.7430 N.3   185  ASP185     -0.1225
     90  CA       105.9380   28.0470   26.9290 C.3   185  ASP185      0.1805
     91  C        105.3800   29.2360   26.1520 C.2   185  ASP185      0.2597
     92  O        105.0270   29.1150   24.9760 O.2   185  ASP185     -0.2718
     93  CB       104.8510   27.4560   27.8280 C.3   185  ASP185      0.1424
     94  CG       103.6650   26.9180   27.0470 C.2   185  ASP185      0.3668
     95  OD1      102.6400   26.5960   27.6830 O.co2 185  ASP185     -0.2456
     96  OD2      103.7530   26.8060   25.8050 O.co2 185  ASP185     -0.2456
     97  N        105.3020   30.3890   26.8100 N.am  186  HIS186     -0.1975
     98  CA       104.7910   31.5880   26.1590 C.3   186  HIS186      0.1656
     99  C        105.7530   31.9990   25.0420 C.2   186  HIS186      0.2291
    100  O        105.3390   32.2340   23.9020 O.2   186  HIS186     -0.2864
    101  CB       104.6470   32.7180   27.1790 C.3   186  HIS186      0.0771
    102  CG       104.0370   33.9570   26.6090 C.ar  186  HIS186      0.0820
    103  ND1      104.7440   34.8360   25.8150 N.ar  186  HIS186     -0.2267
    104  CD2      102.7730   34.4370   26.6710 C.ar  186  HIS186      0.1154
    105  CE1      103.9400   35.8040   25.4130 C.ar  186  HIS186      0.1986
    106  NE2      102.7390   35.5860   25.9180 N.ar  186  HIS186     -0.2212
@<TRIPOS>BOND
     1    34    35    1
     2    34    31    1
     3    33    32    2
     4    30    31    1
     5    30    28   am
     6    31    32    1
     7    27    28    1
     8    27    26    1
     9    28    29    2
    10    32    36   am
    11    44    43    1
    12    42    43    1
    13    42    41    1
    14    40    41    1
    15    40    37    1
    16    36    37    1
    17    39    38    2
    18    38    37    1
    19   100    99    2
    20    51    50   ar
    21    52    50   ar
    22    92    91    2
    23    99    98    1
    24    50    49    1
    25   105   103   ar
    26   105   106   ar
    27    45    46    1
    28    25    24    1
    29    96    94   ar
    30   103   102   ar
    31   106   104   ar
    32    91    97   am
    33    91    90    1
    34    98    97    1
    35    98   101    1
    36    49    46    1
    37    46    47    1
    38    24    23    1
    39   102   104   ar
    40   102   101    1
    41    90    89    1
    42    90    93    1
    43    94    95   ar
    44    94    93    1
    45    47    48    2
    46    23    22    1
    47    61    63   ar
    48    61    59   ar
    49    63    62   ar
    50    22    21    1
    51    59    58   ar
    52    62    60   ar
    53    81    80    2
    54    21    18    1
    55    73    72    2
    56    88    87   ar
    57    88    86   ar
    58    80    79    1
    59    60    58   ar
    60    58    57    1
    61    87    85   ar
    62    19    20    2
    63    19    18    1
    64     8     6    1
    65    86    84   ar
    66    18    17    1
    67    85    83   ar
    68    53    54    1
    69    79    78    1
    70    79    82    1
    71    72    78   am
    72    72    71    1
    73    84    83   ar
    74     6     5    1
    75    83    82    1
    76    57    54    1
    77    54    55    1
    78    71    74    1
    79    71    70    1
    80     7     5    1
    81     5     2    1
    82    74    75    1
    83    76    75   ar
    84    75    77   ar
    85    55    56    2
    86     2     1    1
    87     2     3    1
    88    15    13    1
    89     3     4    2
    90    67    66    2
    91    13    10    1
    92    13    14    1
    93    10     9    1
    94    10    11    1
    95    66    65    1
    96    12    11    2
    97    14    16    1
    98    65    64    1
    99    65    68    1
   100    68    69    1
