@<TRIPOS>MOLECULE
tmp/2v77A00.pdb
 187 180 0 0 0
SMALL
GASTEIGER

@<TRIPOS>ATOM
      1  N        107.6950   37.3480   47.8310 N.3    69  HIS69      -0.1241
      2  CA       108.0500   37.2760   49.2530 C.3    69  HIS69       0.1621
      3  C        106.7540   37.6740   49.9590 C.2    69  HIS69       0.2264
      4  O        106.2930   38.8120   49.8570 O.2    69  HIS69      -0.2867
      5  CB       109.1870   38.2430   49.5760 C.3    69  HIS69       0.0745
      6  CG       110.5320   37.7300   49.1630 C.ar   69  HIS69       0.0817
      7  ND1      111.5500   38.5580   48.7490 N.ar   69  HIS69      -0.2268
      8  CD2      111.0290   36.4710   49.1160 C.ar   69  HIS69       0.1154
      9  CE1      112.6170   37.8350   48.4630 C.ar   69  HIS69       0.1986
     10  NE2      112.3280   36.5640   48.6770 N.ar   69  HIS69      -0.2212
     11  N        105.6300   38.4750   53.0280 N.3    71  ARG71      -0.1231
     12  CA       105.4570   39.5730   53.9820 C.3    71  ARG71       0.1694
     13  C        105.4050   40.9730   53.3790 C.2    71  ARG71       0.2591
     14  O        105.0680   41.9360   54.0690 O.2    71  ARG71      -0.2718
     15  CB       106.5850   39.5300   55.0110 C.3    71  ARG71       0.0321
     16  CG       107.9630   39.7290   54.3850 C.3    71  ARG71       0.0489
     17  CD       109.0160   39.7880   55.4630 C.3    71  ARG71       0.2205
     18  NE       110.3740   39.9010   54.9420 N.pl3  71  ARG71      -0.0865
     19  CZ       111.4310   39.3780   55.5550 C.cat  71  ARG71       0.5346
     20  NH1      112.6490   39.5210   55.0440 N.pl3  71  ARG71       0.1354
     21  NH2      111.2620   38.6790   56.6730 N.pl3  71  ARG71       0.1354
     22  N        105.7410   41.0960   52.1020 N.am   72  GLU72      -0.1979
     23  CA       105.7600   42.4030   51.4560 C.3    72  GLU72       0.1602
     24  C        104.3690   42.7760   50.9710 C.2    72  GLU72       0.2287
     25  O        104.1470   43.0270   49.7820 O.2    72  GLU72      -0.2864
     26  CB       106.7720   42.3570   50.3130 C.3    72  GLU72       0.0415
     27  CG       108.1600   41.9770   50.8320 C.3    72  GLU72       0.1163
     28  CD       109.1520   41.6390   49.7400 C.2    72  GLU72       0.3649
     29  OE1      110.2480   41.1600   50.0930 O.co2  72  GLU72      -0.2457
     30  OE2      108.8460   41.8380   48.5450 O.co2  72  GLU72      -0.2457
     31  N        108.7710   35.1340   54.8550 N.3   127  ARG127     -0.1245
     32  CA       109.3190   35.5160   53.5530 C.3   127  ARG127      0.1563
     33  C        109.3880   34.4110   52.5030 C.2   127  ARG127      0.2260
     34  O        109.0630   34.6300   51.3330 O.2   127  ARG127     -0.2867
     35  CB       110.7370   36.0730   53.7780 C.3   127  ARG127      0.0307
     36  CG       111.6260   36.2300   52.5350 C.3   127  ARG127      0.0489
     37  CD       113.0790   36.4200   53.0070 C.3   127  ARG127      0.2205
     38  NE       114.0660   36.4990   51.9290 N.pl3 127  ARG127     -0.0865
     39  CZ       114.3150   37.5840   51.2000 C.cat 127  ARG127      0.5346
     40  NH1      115.2390   37.5260   50.2510 N.pl3 127  ARG127      0.1354
     41  NH2      113.6570   38.7210   51.4170 N.pl3 127  ARG127      0.1354
     42  N        113.4940   33.9740   45.8390 N.3   144  ASN144     -0.1225
     43  CA       114.3290   34.8930   45.0690 C.3   144  ASN144      0.1785
     44  C        115.8210   34.5640   45.1330 C.2   144  ASN144      0.2597
     45  O        116.6680   35.4370   44.9330 O.2   144  ASN144     -0.2718
     46  CB       114.0900   36.3470   45.4880 C.3   144  ASN144      0.1169
     47  CG       114.4660   37.3190   44.3910 C.2   144  ASN144      0.2627
     48  OD1      114.3600   36.9830   43.2120 O.2   144  ASN144     -0.2716
     49  ND2      114.8860   38.5210   44.7610 N.am  144  ASN144     -0.0877
     50  N        116.1260   33.2990   45.4260 N.am  145  ARG145     -0.1979
     51  CA       117.5030   32.8020   45.4540 C.3   145  ARG145      0.1597
     52  C        117.4770   31.4200   44.7990 C.2   145  ARG145      0.2287
     53  O        118.4970   30.7310   44.7350 O.2   145  ARG145     -0.2864
     54  CB       118.0230   32.6560   46.8940 C.3   145  ARG145      0.0334
     55  CG       118.1820   33.9630   47.6600 C.3   145  ARG145      0.0492
     56  CD       119.2470   34.8740   47.0390 C.3   145  ARG145      0.2205
     57  NE       119.4600   36.0660   47.8560 N.pl3 145  ARG145     -0.0865
     58  CZ       118.5880   37.0650   47.9720 C.cat 145  ARG145      0.5346
     59  NH1      117.4370   37.0290   47.3050 N.pl3 145  ARG145      0.1354
     60  NH2      118.8410   38.0780   48.7930 N.pl3 145  ARG145      0.1354
     61  N        108.8100   43.9450   44.7020 N.3   196  HIS196     -0.1226
     62  CA       109.0870   43.7150   46.1200 C.3   196  HIS196      0.1752
     63  C        108.9030   45.0280   46.8900 C.2   196  HIS196      0.2597
     64  O        108.5930   46.0690   46.3290 O.2   196  HIS196     -0.2718
     65  CB       110.5570   43.3140   46.3280 C.3   196  HIS196      0.0759
     66  CG       110.9420   42.0010   45.7230 C.ar  196  HIS196      0.0818
     67  ND1      111.3150   40.9180   46.4880 N.ar  196  HIS196     -0.2268
     68  CD2      111.0540   41.6050   44.4340 C.ar  196  HIS196      0.1154
     69  CE1      111.6420   39.9100   45.6980 C.ar  196  HIS196      0.1986
     70  NE2      111.4940   40.3020   44.4450 N.ar  196  HIS196     -0.2212
     71  N        109.1250   44.9440   48.1980 N.am  197  SER197     -0.1938
     72  CA       109.1140   46.0700   49.1250 C.3   197  SER197      0.2055
     73  C        110.0380   45.5910   50.2560 C.2   197  SER197      0.2643
     74  O        110.2140   44.3860   50.4130 O.2   197  SER197     -0.2714
     75  CB       107.7020   46.4010   49.6320 C.3   197  SER197      0.2130
     76  OG       107.2630   45.5480   50.6700 O.3   197  SER197     -0.2179
     77  N        110.7100   46.4770   50.9720 N.am  198  TYR198     -0.1959
     78  CA       110.6850   47.9380   50.8040 C.3   198  TYR198      0.1771
     79  C        112.1030   48.3930   50.4740 C.2   198  TYR198      0.2620
     80  O        113.0280   47.5930   50.5110 O.2   198  TYR198     -0.2715
     81  CB       110.2600   48.5740   52.1200 C.3   198  TYR198      0.0574
     82  CG       111.1970   48.2290   53.2650 C.ar  198  TYR198     -0.0198
     83  CD1      111.0500   47.0460   53.9770 C.ar  198  TYR198     -0.0009
     84  CD2      112.2690   49.0530   53.5870 C.ar  198  TYR198     -0.0009
     85  CE1      111.9440   46.6800   54.9620 C.ar  198  TYR198      0.0417
     86  CE2      113.1760   48.6980   54.5740 C.ar  198  TYR198      0.0417
     87  CZ       113.0110   47.5130   55.2620 C.ar  198  TYR198      0.1957
     88  OH       113.9060   47.1430   56.2330 O.3   198  TYR198     -0.2866
     89  N        112.2610   49.6920   50.2110 N.am  199  SER199     -0.1950
     90  CA       113.5590   50.3460   49.9390 C.3   199  SER199      0.1924
     91  C        113.4740   51.5120   48.9620 C.2   199  SER199      0.2314
     92  O        114.3530   52.3750   48.9500 O.2   199  SER199     -0.2863
     93  CB       114.6260   49.3650   49.4180 C.3   199  SER199      0.2116
     94  OG       115.2850   48.7070   50.4890 O.3   199  SER199     -0.2180
     95  N        115.5880   48.4960   40.0710 N.3   203  MET203     -0.1245
     96  CA       116.8490   47.8700   39.6930 C.3   203  MET203      0.1570
     97  C        116.7920   46.9450   38.4870 C.2   203  MET203      0.2261
     98  O        115.7330   46.4300   38.1210 O.2   203  MET203     -0.2867
     99  CB       117.4010   47.1000   40.9010 C.3   203  MET203      0.0387
    100  CG       117.5750   47.9720   42.1430 C.3   203  MET203      0.0595
    101  SD       117.9780   47.0410   43.6480 S.3   203  MET203     -0.1393
    102  CE       116.4020   46.2390   43.9540 C.3   203  MET203      0.0692
    103  N        121.0820   45.4640   40.7050 N.3   243  ILE243     -0.1245
    104  CA       120.7600   44.9240   42.0220 C.3   243  ILE243      0.1561
    105  C        121.9890   44.9680   42.9330 C.2   243  ILE243      0.2260
    106  O        121.9280   45.4680   44.0580 O.2   243  ILE243     -0.2867
    107  CB       120.2740   43.4550   41.9230 C.3   243  ILE243      0.0252
    108  CG1      118.9080   43.3980   41.2320 C.3   243  ILE243      0.0019
    109  CG2      120.2040   42.8240   43.3140 C.3   243  ILE243      0.0019
    110  CD1      118.4840   41.9890   40.8360 C.3   243  ILE243      0.0001
    111  N        121.5430   47.6700   46.0050 N.3   247  ILE247     -0.1231
    112  CA       121.1660   47.1490   47.3120 C.3   247  ILE247      0.1692
    113  C        122.2380   46.1960   47.8600 C.2   247  ILE247      0.2592
    114  O        122.8750   46.5100   48.8650 O.2   247  ILE247     -0.2718
    115  CB       119.7370   46.4970   47.2740 C.3   247  ILE247      0.0266
    116  CG1      119.2770   46.1850   48.7000 C.3   247  ILE247      0.0019
    117  CG2      119.7220   45.2540   46.4030 C.3   247  ILE247      0.0020
    118  CD1      117.7930   45.8610   48.8110 C.3   247  ILE247      0.0001
    119  N        122.4540   45.0590   47.2030 N.am  248  TYR248     -0.1976
    120  CA       123.4770   44.1000   47.6230 C.3   248  TYR248      0.1639
    121  C        123.5420   42.8860   46.7110 C.2   248  TYR248      0.2290
    122  O        122.6700   42.6900   45.8650 O.2   248  TYR248     -0.2864
    123  CB       123.2650   43.6600   49.0870 C.3   248  TYR248      0.0560
    124  CG       121.8810   43.1600   49.4540 C.ar  248  TYR248     -0.0198
    125  CD1      121.2420   43.6330   50.6000 C.ar  248  TYR248     -0.0009
    126  CD2      121.2270   42.1870   48.6920 C.ar  248  TYR248     -0.0009
    127  CE1      119.9900   43.1540   50.9840 C.ar  248  TYR248      0.0417
    128  CE2      119.9680   41.7000   49.0700 C.ar  248  TYR248      0.0417
    129  CZ       119.3610   42.1880   50.2170 C.ar  248  TYR248      0.1957
    130  OH       118.1320   41.7170   50.6150 O.3   248  TYR248     -0.2866
    131  N        123.0300   39.3050   45.3770 N.3   250  ALA250     -0.1245
    132  CA       122.0000   38.2920   45.5600 C.3   250  ALA250      0.1562
    133  C        122.1050   37.3250   44.3910 C.2   250  ALA250      0.2260
    134  O        122.0440   37.7410   43.2340 O.2   250  ALA250     -0.2867
    135  CB       120.6270   38.9460   45.5810 C.3   250  ALA250      0.0290
    136  N        118.5310   35.1480   41.7110 N.3   253  SER253     -0.1217
    137  CA       117.3700   36.0340   41.7420 C.3   253  SER253      0.1889
    138  C        116.6230   35.9920   40.4140 C.2   253  SER253      0.2288
    139  O        117.1940   35.6650   39.3710 O.2   253  SER253     -0.2866
    140  CB       117.7830   37.4740   42.0720 C.3   253  SER253      0.2089
    141  OG       118.3910   38.1050   40.9590 O.3   253  SER253     -0.2183
    142  N        115.1950   38.3200   38.1080 N.3   255  ILE255     -0.1245
    143  CA       115.5490   39.0320   36.8840 C.3   255  ILE255      0.1561
    144  C        116.9030   38.6910   36.2800 C.2   255  ILE255      0.2260
    145  O        117.1370   38.9820   35.1110 O.2   255  ILE255     -0.2867
    146  CB       115.4010   40.5710   37.0260 C.3   255  ILE255      0.0252
    147  CG1      116.4810   41.1480   37.9400 C.3   255  ILE255      0.0019
    148  CG2      113.9900   40.9040   37.5240 C.3   255  ILE255      0.0019
    149  CD1      116.5360   42.6650   37.9020 C.3   255  ILE255      0.0001
    150  N        113.2780   44.9460   38.7000 N.3   268  THR268     -0.1203
    151  CA       112.7230   44.5920   39.9960 C.3   268  THR268      0.1994
    152  C        112.5230   45.8880   40.7740 C.2   268  THR268      0.2618
    153  O        113.3910   46.7660   40.7930 O.2   268  THR268     -0.2717
    154  CB       113.6170   43.6070   40.7830 C.3   268  THR268      0.1784
    155  OG1      112.9580   43.2640   42.0110 O.3   268  THR268     -0.2211
    156  CG2      114.9700   44.2100   41.0910 C.3   268  THR268      0.0376
    157  N        111.3420   46.0250   41.3700 N.am  269  PHE269     -0.1961
    158  CA       111.0050   47.2060   42.1540 C.3   269  PHE269      0.1771
    159  C        111.0780   46.8890   43.6370 C.2   269  PHE269      0.2619
    160  O        110.9030   45.7430   44.0410 O.2   269  PHE269     -0.2715
    161  CB       109.5590   47.6500   41.8970 C.3   269  PHE269      0.0574
    162  CG       109.3610   48.4610   40.6560 C.ar  269  PHE269     -0.0200
    163  CD1      109.2440   49.8450   40.7390 C.ar  269  PHE269     -0.0042
    164  CD2      109.2340   47.8460   39.4160 C.ar  269  PHE269     -0.0042
    165  CE1      108.9980   50.6050   39.6060 C.ar  269  PHE269     -0.0003
    166  CE2      108.9870   48.6020   38.2740 C.ar  269  PHE269     -0.0003
    167  CZ       108.8690   49.9800   38.3720 C.ar  269  PHE269     -0.0000
    168  N        111.3400   47.9250   44.4280 N.am  270  GLU270     -0.1977
    169  CA       111.3270   47.8500   45.8860 C.3   270  GLU270      0.1602
    170  C        110.4310   49.0420   46.2020 C.2   270  GLU270      0.2287
    171  O        110.8600   50.1910   46.0950 O.2   270  GLU270     -0.2864
    172  CB       112.7190   48.0700   46.4920 C.3   270  GLU270      0.0415
    173  CG       113.6470   46.8750   46.3800 C.3   270  GLU270      0.1163
    174  CD       113.1750   45.6840   47.2020 C.2   270  GLU270      0.3649
    175  OE1      113.7740   44.6060   47.0640 O.co2 270  GLU270     -0.2457
    176  OE2      112.2120   45.8300   47.9780 O.co2 270  GLU270     -0.2457
    177  N        108.0780   46.6350   56.1140 N.3   279  PHE279     -0.1241
    178  CA       107.0620   45.7290   55.5730 C.3   279  PHE279      0.1605
    179  C        105.6800   46.0430   56.1090 C.2   279  PHE279      0.2264
    180  O        104.6730   45.7020   55.4880 O.2   279  PHE279     -0.2867
    181  CB       107.4010   44.2800   55.9400 C.3   279  PHE279      0.0534
    182  CG       108.7660   43.8660   55.5180 C.ar  279  PHE279     -0.0203
    183  CD1      109.1040   43.8180   54.1680 C.ar  279  PHE279     -0.0042
    184  CD2      109.7370   43.5590   56.4690 C.ar  279  PHE279     -0.0042
    185  CE1      110.3860   43.4710   53.7680 C.ar  279  PHE279     -0.0003
    186  CE2      111.0240   43.2110   56.0820 C.ar  279  PHE279     -0.0003
    187  CZ       111.3540   43.1670   54.7250 C.ar  279  PHE279     -0.0000
@<TRIPOS>BOND
     1   145   144    2
     2   144   143    1
     3   143   146    1
     4   143   142    1
     5   146   148    1
     6   146   147    1
     7   149   147    1
     8    98    97    2
     9   166   167   ar
    10   166   164   ar
    11   167   165   ar
    12    97    96    1
    13   150   151    1
    14   139   138    2
    15   164   162   ar
    16   165   163   ar
    17    96    95    1
    18    96    99    1
    19   151   152    1
    20   151   154    1
    21   138   137    1
    22   162   163   ar
    23   162   161    1
    24   103   104    1
    25   152   153    2
    26   152   157   am
    27   154   156    1
    28   154   155    1
    29   110   108    1
    30    99   100    1
    31   141   140    1
    32   108   107    1
    33   157   158    1
    34   136   137    1
    35   137   140    1
    36   161   158    1
    37   107   104    1
    38   107   109    1
    39   104   105    1
    40   100   101    1
    41   158   159    1
    42   105   106    2
    43    48    47    2
    44   134   133    2
    45   159   160    2
    46   159   168   am
    47   101   102    1
    48    47    49   am
    49    47    46    1
    50   133   132    1
    51   168   169    1
    52    68    70   ar
    53    68    66   ar
    54    70    69   ar
    55    61    62    1
    56    53    52    2
    57    52    51    1
    58    45    44    2
    59    43    44    1
    60    43    46    1
    61    43    42    1
    62    44    50   am
    63   131   132    1
    64    50    51    1
    65    51    54    1
    66   132   135    1
    67    69    67   ar
    68    66    65    1
    69    66    67   ar
    70   122   121    2
    71   169   170    1
    72   169   172    1
    73   111   112    1
    74   171   170    2
    75    62    65    1
    76    62    63    1
    77    64    63    2
    78   173   172    1
    79   173   174    1
    80   117   115    1
    81   121   120    1
    82    63    71   am
    83    54    55    1
    84    56    55    1
    85    56    57    1
    86   175   174   ar
    87   174   176   ar
    88   119   120    1
    89   119   113   am
    90   115   112    1
    91   115   116    1
    92    59    58    1
    93   112   113    1
    94   120   123    1
    95     1     2    1
    96    57    58    2
    97   113   114    2
    98    58    60    1
    99    71    72    1
   100     9    10   ar
   101     9     7   ar
   102    30    28   ar
   103    10     8   ar
   104   126   128   ar
   105   126   124   ar
   106   116   118    1
   107     7     6   ar
   108    92    91    2
   109    91    90    1
   110   128   129   ar
   111   123   124    1
   112     8     6   ar
   113    72    75    1
   114    72    73    1
   115     6     5    1
   116     2     5    1
   117     2     3    1
   118    93    90    1
   119    93    94    1
   120   124   125   ar
   121    75    76    1
   122    28    29   ar
   123    28    27    1
   124    25    24    2
   125     4     3    2
   126    90    89    1
   127    89    79   am
   128   129   130    1
   129   129   127   ar
   130    40    39    1
   131    73    74    2
   132    73    77   am
   133    26    27    1
   134    26    23    1
   135    79    80    2
   136    79    78    1
   137   125   127   ar
   138    78    77    1
   139    78    81    1
   140    24    23    1
   141    39    41    1
   142    39    38    2
   143    34    33    2
   144    23    22    1
   145    38    37    1
   146    22    13   am
   147    81    82    1
   148    33    32    1
   149    36    37    1
   150    36    35    1
   151    11    12    1
   152    82    84   ar
   153    82    83   ar
   154    13    12    1
   155    13    14    2
   156    32    35    1
   157    32    31    1
   158    84    86   ar
   159   185   183   ar
   160   185   187   ar
   161    83    85   ar
   162    12    15    1
   163   183   182   ar
   164    16    15    1
   165    16    17    1
   166    86    87   ar
   167   187   186   ar
   168    18    17    1
   169    18    19    2
   170    85    87   ar
   171    20    19    1
   172    87    88    1
   173   180   179    2
   174   182   181    1
   175   182   184   ar
   176    19    21    1
   177   178   181    1
   178   178   179    1
   179   178   177    1
   180   186   184   ar
