@<TRIPOS>MOLECULE
tmp/2v7aA00.pdb
 208 200 0 0 0
SMALL
GASTEIGER

@<TRIPOS>ATOM
      1  N        -48.5280  -49.7980  -15.6150 N.3    16  LEU16      -0.1231
      2  CA       -47.8070  -50.6440  -14.6640 C.3    16  LEU16       0.1693
      3  C        -48.5290  -50.8250  -13.3420 C.2    16  LEU16       0.2593
      4  O        -48.3130  -51.8030  -12.6570 O.2    16  LEU16      -0.2718
      5  CB       -46.3850  -50.1350  -14.4120 C.3    16  LEU16       0.0284
      6  CG       -45.3800  -50.3340  -15.5420 C.3    16  LEU16       0.0019
      7  CD1      -44.1140  -49.5390  -15.2790 C.3    16  LEU16       0.0001
      8  CD2      -45.0880  -51.8330  -15.7780 C.3    16  LEU16       0.0001
      9  N        -49.3800  -49.8690  -12.9820 N.am   17  GLY17      -0.1942
     10  CA       -50.0250  -49.8720  -11.6710 C.3    17  GLY17       0.2014
     11  C        -49.0710  -49.2550  -10.6680 C.2    17  GLY17       0.2639
     12  O        -47.9770  -48.8170  -11.0390 O.2    17  GLY17      -0.2714
     13  N        -49.4770  -49.2270   -9.3970 N.am   18  GLY18      -0.1939
     14  CA       -48.6090  -48.7750   -8.3090 C.3    18  GLY18       0.2014
     15  C        -48.5520  -47.2710   -8.1050 C.2    18  GLY18       0.2639
     16  O        -47.8720  -46.7970   -7.1930 O.2    18  GLY18      -0.2714
     17  N        -49.2710  -46.5140   -8.9340 N.am   19  GLY19      -0.1939
     18  CA       -49.2300  -45.0510   -8.8480 C.3    19  GLY19       0.2014
     19  C        -50.0340  -44.4230   -7.7230 C.2    19  GLY19       0.2638
     20  O        -50.9860  -45.0150   -7.2100 O.2    19  GLY19      -0.2714
     21  N        -49.6600  -43.2040   -7.3630 N.am   20  GLN20      -0.1977
     22  CA       -50.2910  -42.4840   -6.2790 C.3    20  GLN20       0.1601
     23  C        -51.1250  -41.3390   -6.8430 C.2    20  GLN20       0.2287
     24  O        -52.3380  -41.2900   -6.6310 O.2    20  GLN20      -0.2864
     25  CB       -49.2180  -41.9550   -5.3230 C.3    20  GLN20       0.0394
     26  CG       -49.7200  -41.5740   -3.9340 C.3    20  GLN20       0.0908
     27  CD       -48.6360  -40.8860   -3.0850 C.2    20  GLN20       0.2608
     28  OE1      -48.9230  -39.9430   -2.3430 O.2    20  GLN20      -0.2717
     29  NE2      -47.3910  -41.3600   -3.1970 N.am   20  GLN20      -0.0878
     30  N        -48.8240  -45.1190  -13.8530 N.3    24  VAL24      -0.1245
     31  CA       -47.4000  -45.2840  -14.0880 C.3    24  VAL24       0.1561
     32  C        -47.2400  -46.2220  -15.2730 C.2    24  VAL24       0.2260
     33  O        -47.7410  -47.3440  -15.2540 O.2    24  VAL24      -0.2867
     34  CB       -46.6580  -45.8920  -12.8860 C.3    24  VAL24       0.0252
     35  CG1      -45.1740  -46.0430  -13.2040 C.3    24  VAL24       0.0019
     36  CG2      -46.8510  -45.0280  -11.6480 C.3    24  VAL24       0.0019
     37  N        -39.6850  -46.0220  -17.3360 N.3    37  ALA37      -0.1245
     38  CA       -40.9330  -45.8980  -16.5860 C.3    37  ALA37       0.1562
     39  C        -41.3660  -44.4590  -16.6530 C.2    37  ALA37       0.2260
     40  O        -40.5350  -43.5290  -16.5980 O.2    37  ALA37      -0.2867
     41  CB       -40.7610  -46.3300  -15.1640 C.3    37  ALA37       0.0290
     42  N        -44.0480  -41.8010  -14.9200 N.3    39  LYS39      -0.1245
     43  CA       -45.0260  -41.4780  -13.9010 C.3    39  LYS39       0.1561
     44  C        -45.8080  -40.2830  -14.3640 C.2    39  LYS39       0.2260
     45  O        -45.2290  -39.2530  -14.7040 O.2    39  LYS39      -0.2867
     46  CB       -44.3450  -41.1420  -12.5670 C.3    39  LYS39       0.0271
     47  CG       -43.4780  -42.2370  -11.9990 C.3    39  LYS39       0.0035
     48  CD       -42.9490  -41.8700  -10.6230 C.3    39  LYS39       0.0206
     49  CE       -43.9370  -42.2220   -9.5120 C.3    39  LYS39       0.1093
     50  NZ       -43.3140  -41.9180   -8.2180 N.3    39  LYS39      -0.1314
     51  N        -41.0530  -34.3330   -6.2420 N.3    54  GLU54      -0.1245
     52  CA       -40.3780  -35.5980   -6.5270 C.3    54  GLU54       0.1567
     53  C        -39.3560  -35.3930   -7.6480 C.2    54  GLU54       0.2260
     54  O        -38.2150  -35.8210   -7.5590 O.2    54  GLU54      -0.2867
     55  CB       -41.4080  -36.6500   -6.9320 C.3    54  GLU54       0.0388
     56  CG       -40.8370  -38.0080   -7.2650 C.3    54  GLU54       0.1160
     57  CD       -41.9000  -39.0670   -7.5260 C.2    54  GLU54       0.3649
     58  OE1      -43.1250  -38.7580   -7.5070 O.co2  54  GLU54      -0.2457
     59  OE2      -41.5010  -40.2310   -7.7590 O.co2  54  GLU54      -0.2457
     60  N        -32.9550  -45.1700   -7.8640 N.3    67  VAL67      -0.1245
     61  CA       -33.5520  -45.2400   -9.2070 C.3    67  VAL67       0.1561
     62  C        -33.3210  -43.8870   -9.9100 C.2    67  VAL67       0.2260
     63  O        -33.4390  -42.8190   -9.2680 O.2    67  VAL67      -0.2867
     64  CB       -35.0220  -45.7270   -9.1930 C.3    67  VAL67       0.0252
     65  CG1      -36.0200  -44.5970   -8.8830 C.3    67  VAL67       0.0019
     66  CG2      -35.3580  -46.3500  -10.5180 C.3    67  VAL67       0.0019
     67  N        -38.1630  -42.2190  -15.7030 N.3    83  ILE83      -0.1231
     68  CA       -37.2510  -42.8720  -14.7820 C.3    83  ILE83       0.1692
     69  C        -36.8110  -44.1990  -15.3930 C.2    83  ILE83       0.2592
     70  O        -37.6130  -44.8420  -16.1080 O.2    83  ILE83      -0.2718
     71  CB       -37.9580  -43.1020  -13.4030 C.3    83  ILE83       0.0266
     72  CG1      -38.5220  -41.7690  -12.8780 C.3    83  ILE83       0.0019
     73  CG2      -37.0300  -43.7780  -12.4180 C.3    83  ILE83       0.0020
     74  CD1      -39.1150  -41.7960  -11.4650 C.3    83  ILE83       0.0001
     75  N        -35.5570  -44.6080  -15.1230 N.am   84  GLU84      -0.1966
     76  CA       -35.0480  -45.9200  -15.5830 C.3    84  GLU84       0.1733
     77  C        -36.0450  -47.0040  -15.2270 C.2    84  GLU84       0.2616
     78  O        -36.7190  -46.9180  -14.1880 O.2    84  GLU84      -0.2715
     79  CB       -33.6550  -46.2600  -15.0190 C.3    84  GLU84       0.0429
     80  CG       -33.5820  -46.4180  -13.4880 C.3    84  GLU84       0.1163
     81  CD       -32.1980  -46.8560  -12.9830 C.2    84  GLU84       0.3649
     82  OE1      -31.7050  -46.3130  -11.9550 O.co2  84  GLU84      -0.2457
     83  OE2      -31.6020  -47.7470  -13.6260 O.co2  84  GLU84      -0.2457
     84  N        -36.1830  -47.9850  -16.1220 N.am   85  PHE85      -0.1960
     85  CA       -37.1130  -49.0910  -15.9360 C.3    85  PHE85       0.1771
     86  C        -36.4270  -50.1870  -15.1050 C.2    85  PHE85       0.2619
     87  O        -35.3300  -50.6440  -15.4430 O.2    85  PHE85      -0.2715
     88  CB       -37.5770  -49.6310  -17.2940 C.3    85  PHE85       0.0574
     89  CG       -38.6530  -50.7180  -17.1970 C.ar   85  PHE85      -0.0200
     90  CD1      -39.9310  -50.4230  -16.7140 C.ar   85  PHE85      -0.0042
     91  CD2      -38.3800  -52.0240  -17.5830 C.ar   85  PHE85      -0.0042
     92  CE1      -40.9110  -51.4210  -16.6050 C.ar   85  PHE85      -0.0003
     93  CE2      -39.3560  -53.0350  -17.4870 C.ar   85  PHE85      -0.0003
     94  CZ       -40.6270  -52.7350  -17.0040 C.ar   85  PHE85      -0.0000
     95  N        -37.0580  -50.5900  -14.0150 N.am   86  MET86      -0.1963
     96  CA       -36.5700  -51.7250  -13.2340 C.3    86  MET86       0.1736
     97  C        -37.5150  -52.8960  -13.4750 C.2    86  MET86       0.2617
     98  O        -38.6980  -52.8140  -13.1500 O.2    86  MET86      -0.2715
     99  CB       -36.5210  -51.3780  -11.7480 C.3    86  MET86       0.0427
    100  CG       -35.7710  -50.1170  -11.4110 C.3    86  MET86       0.0599
    101  SD       -34.0490  -50.3270  -11.7530 S.3    86  MET86      -0.1393
    102  CE       -33.6250  -51.6220  -10.5850 C.3    86  MET86       0.0692
    103  N        -36.9810  -53.9820  -14.0230 N.am   87  THR87      -0.1937
    104  CA       -37.7710  -55.0200  -14.6920 C.3    87  THR87       0.2028
    105  C        -38.5700  -55.8840  -13.7450 C.2    87  THR87       0.2642
    106  O        -39.6370  -56.3680  -14.1070 O.2    87  THR87      -0.2714
    107  CB       -36.8930  -55.9300  -15.5470 C.3    87  THR87       0.1808
    108  OG1      -35.8670  -56.4800  -14.7320 O.3    87  THR87      -0.2208
    109  CG2      -36.2260  -55.1550  -16.6810 C.3    87  THR87       0.0379
    110  N        -38.0850  -56.0400  -12.5170 N.am   88  TYR88      -0.1959
    111  CA       -38.7970  -56.8880  -11.5720 C.3    88  TYR88       0.1771
    112  C        -39.8120  -56.2220  -10.6560 C.2    88  TYR88       0.2620
    113  O        -40.4380  -56.9260   -9.8660 O.2    88  TYR88      -0.2715
    114  CB       -37.8240  -57.7100  -10.7440 C.3    88  TYR88       0.0574
    115  CG       -37.1320  -58.7830  -11.5290 C.ar   88  TYR88      -0.0198
    116  CD1      -35.9130  -58.5320  -12.1590 C.ar   88  TYR88      -0.0009
    117  CD2      -37.6760  -60.0630  -11.6300 C.ar   88  TYR88      -0.0009
    118  CE1      -35.2570  -59.5200  -12.8930 C.ar   88  TYR88       0.0417
    119  CE2      -37.0140  -61.0720  -12.3510 C.ar   88  TYR88       0.0417
    120  CZ       -35.8130  -60.7820  -12.9760 C.ar   88  TYR88       0.1957
    121  OH       -35.1540  -61.7580  -13.6860 O.3    88  TYR88      -0.2866
    122  N        -39.9910  -54.8970  -10.7380 N.am   89  GLY89      -0.1940
    123  CA       -40.9280  -54.2070   -9.8270 C.3    89  GLY89       0.2014
    124  C        -40.5300  -54.1580   -8.3400 C.2    89  GLY89       0.2638
    125  O        -39.3400  -54.1950   -7.9930 O.2    89  GLY89      -0.2714
    126  N        -41.5180  -54.0910   -7.4450 N.am   90  ASN90      -0.1972
    127  CA       -41.2230  -53.7310   -6.0550 C.3    90  ASN90       0.1688
    128  C        -40.5230  -54.8320   -5.2400 C.2    90  ASN90       0.2292
    129  O        -40.7420  -56.0320   -5.4920 O.2    90  ASN90      -0.2864
    130  CB       -42.4530  -53.1490   -5.3540 C.3    90  ASN90       0.1181
    131  CG       -43.3780  -54.2040   -4.8460 C.2    90  ASN90       0.2629
    132  OD1      -43.1590  -54.7480   -3.7560 O.2    90  ASN90      -0.2716
    133  ND2      -44.4300  -54.5070   -5.6110 N.am   90  ASN90      -0.0877
    134  N        -42.9600  -57.5660   -3.1890 N.3    93  ASP93      -0.1225
    135  CA       -43.4970  -58.6890   -3.9740 C.3    93  ASP93       0.1805
    136  C        -42.3610  -59.5700   -4.4900 C.2    93  ASP93       0.2597
    137  O        -42.4940  -60.7870   -4.5580 O.2    93  ASP93      -0.2718
    138  CB       -44.3670  -58.2200   -5.1330 C.3    93  ASP93       0.1424
    139  CG       -45.6880  -57.5990   -4.6810 C.2    93  ASP93       0.3668
    140  OD1      -46.3680  -58.1640   -3.7980 O.co2  93  ASP93      -0.2456
    141  OD2      -46.0600  -56.5440   -5.2360 O.co2  93  ASP93      -0.2456
    142  N        -41.2290  -58.9600   -4.8040 N.am   94  TYR94      -0.1976
    143  CA       -40.0820  -59.7350   -5.2160 C.3    94  TYR94       0.1639
    144  C        -39.6640  -60.7430   -4.1350 C.2    94  TYR94       0.2290
    145  O        -39.3750  -61.9020   -4.4430 O.2    94  TYR94      -0.2864
    146  CB       -38.9180  -58.8240   -5.5730 C.3    94  TYR94       0.0560
    147  CG       -37.7570  -59.5640   -6.1450 C.ar   94  TYR94      -0.0198
    148  CD1      -37.7540  -59.9550   -7.4920 C.ar   94  TYR94      -0.0009
    149  CD2      -36.6530  -59.8910   -5.3570 C.ar   94  TYR94      -0.0009
    150  CE1      -36.6640  -60.6480   -8.0340 C.ar   94  TYR94       0.0417
    151  CE2      -35.5600  -60.5790   -5.8860 C.ar   94  TYR94       0.0417
    152  CZ       -35.5760  -60.9570   -7.2220 C.ar   94  TYR94       0.1957
    153  OH       -34.5100  -61.6290   -7.7730 O.3    94  TYR94      -0.2866
    154  N        -42.3420  -63.7440   -3.6580 N.3    97  GLU97      -0.1245
    155  CA       -42.5360  -64.5870   -4.8190 C.3    97  GLU97       0.1567
    156  C        -41.3040  -65.3390   -5.2890 C.2    97  GLU97       0.2260
    157  O        -41.3920  -66.1830   -6.1680 O.2    97  GLU97      -0.2867
    158  CB       -43.0400  -63.7030   -5.9700 C.3    97  GLU97       0.0388
    159  CG       -44.4880  -63.3640   -5.7860 C.3    97  GLU97       0.1160
    160  CD       -44.9200  -62.2110   -6.6080 C.2    97  GLU97       0.3649
    161  OE1      -44.0500  -61.6010   -7.3000 O.co2  97  GLU97      -0.2457
    162  OE2      -46.1410  -61.9240   -6.5600 O.co2  97  GLU97      -0.2457
    163  N        -41.8160  -51.9160   -0.0930 N.3   135  ARG135     -0.1231
    164  CA       -42.7590  -51.5160   -1.1690 C.3   135  ARG135      0.1694
    165  C        -42.2520  -50.3480   -2.0390 C.2   135  ARG135      0.2592
    166  O        -42.7940  -50.0940   -3.1230 O.2   135  ARG135     -0.2718
    167  CB       -44.1620  -51.1820   -0.6300 C.3   135  ARG135      0.0321
    168  CG       -44.1780  -49.9910    0.2880 C.3   135  ARG135      0.0489
    169  CD       -45.5420  -49.6900    0.9370 C.3   135  ARG135      0.2205
    170  NE       -45.3290  -48.6430    1.9400 N.pl3 135  ARG135     -0.0865
    171  CZ       -44.9380  -48.8620    3.2030 C.cat 135  ARG135      0.5346
    172  NH1      -44.7650  -50.0890    3.6750 N.pl3 135  ARG135      0.1354
    173  NH2      -44.7490  -47.8520    4.0090 N.pl3 135  ARG135      0.1354
    174  N        -41.2250  -49.6430   -1.5620 N.am  136  ASN136     -0.1960
    175  CA       -40.7060  -48.4600   -2.2550 C.3   136  ASN136      0.1819
    176  C        -39.3120  -48.6390   -2.8260 C.2   136  ASN136      0.2621
    177  O        -38.7080  -47.6690   -3.2760 O.2   136  ASN136     -0.2715
    178  CB       -40.7420  -47.2310   -1.3420 C.3   136  ASN136      0.1195
    179  CG       -42.1480  -46.8340   -0.9860 C.2   136  ASN136      0.2630
    180  OD1      -43.0680  -47.0880   -1.7760 O.2   136  ASN136     -0.2716
    181  ND2      -42.3420  -46.2120    0.2040 N.am  136  ASN136     -0.0877
    182  N        -38.7990  -49.8690   -2.7640 N.am  137  CYS137     -0.1954
    183  CA       -37.5550  -50.2370   -3.4200 C.3   137  CYS137      0.1843
    184  C        -37.9210  -51.0210   -4.6540 C.2   137  CYS137      0.2625
    185  O        -38.9550  -51.6900   -4.7160 O.2   137  CYS137     -0.2714
    186  CB       -36.7060  -51.1180   -2.5180 C.3   137  CYS137      0.0997
    187  SG       -36.1350  -50.2550   -1.0630 S.3   137  CYS137     -0.0797
    188  N        -37.0270  -50.9780   -5.6190 N.am  138  LEU138     -0.1977
    189  CA       -37.2770  -51.5000   -6.9290 C.3   138  LEU138      0.1596
    190  C        -36.1750  -52.4890   -7.2620 C.2   138  LEU138      0.2287
    191  O        -35.0260  -52.3050   -6.8450 O.2   138  LEU138     -0.2864
    192  CB       -37.2580  -50.3180   -7.8960 C.3   138  LEU138      0.0297
    193  CG       -38.4870  -49.9360   -8.7210 C.3   138  LEU138      0.0022
    194  CD1      -39.7590  -50.6230   -8.3280 C.3   138  LEU138      0.0001
    195  CD2      -38.6300  -48.4120   -8.7830 C.3   138  LEU138      0.0001
    196  N        -36.3220  -46.0920   -4.2650 N.3   148  ALA148     -0.1231
    197  CA       -37.0760  -45.2990   -5.2510 C.3   148  ALA148      0.1694
    198  C        -38.1700  -44.5120   -4.5190 C.2   148  ALA148      0.2592
    199  O        -38.1490  -44.4730   -3.2890 O.2   148  ALA148     -0.2718
    200  CB       -37.6820  -46.2230   -6.3340 C.3   148  ALA148      0.0304
    201  N        -39.0870  -43.8740   -5.2590 N.am  149  ASP149     -0.1974
    202  CA       -40.2510  -43.1960   -4.6860 C.3   149  ASP149      0.1709
    203  C        -39.8010  -42.0310   -3.8100 C.2   149  ASP149      0.2293
    204  O        -40.0040  -42.0670   -2.5720 O.2   149  ASP149     -0.2864
    205  CB       -41.0720  -44.1620   -3.8150 C.3   149  ASP149      0.1436
    206  CG       -42.5840  -44.0160   -4.0210 C.2   149  ASP149      0.3671
    207  OD1      -43.3420  -44.9460   -3.5860 O.co2 149  ASP149     -0.2456
    208  OD2      -43.0100  -42.9980   -4.6130 O.co2 149  ASP149     -0.2456
@<TRIPOS>BOND
     1    91    93   ar
     2    91    89   ar
     3    93    94   ar
     4    37    38    1
     5    88    89    1
     6    88    85    1
     7    89    90   ar
     8    94    92   ar
     9    90    92   ar
    10   109   107    1
    11    39    40    2
    12    39    38    1
    13    38    41    1
    14    84    85    1
    15    84    77   am
    16    70    69    2
    17    85    86    1
    18     8     6    1
    19    67    68    1
    20     1     2    1
    21    76    77    1
    22    76    75    1
    23    76    79    1
    24   107   108    1
    25   107   104    1
    26     6     7    1
    27     6     5    1
    28    87    86    2
    29    69    75   am
    30    69    68    1
    31    32    33    2
    32    32    31    1
    33    77    78    2
    34    86    95   am
    35    79    80    1
    36    42    43    1
    37    68    71    1
    38    45    44    2
    39   104   103    1
    40   104   105    1
    41     2     5    1
    42     2     3    1
    43    44    43    1
    44   106   105    2
    45    31    30    1
    46    31    34    1
    47   103    97   am
    48    95    96    1
    49    43    46    1
    50   105   110   am
    51   121   120    1
    52    83    81   ar
    53    80    81    1
    54    97    96    1
    55    97    98    2
    56    71    72    1
    57    71    73    1
    58     3     9   am
    59     3     4    2
    60    96    99    1
    61    35    34    1
    62    81    82   ar
    63     9    10    1
    64   120   118   ar
    65   120   119   ar
    66   118   116   ar
    67    34    36    1
    68    72    74    1
    69    46    47    1
    70   110   111    1
    71   119   117   ar
    72   116   115   ar
    73    47    48    1
    74   101   100    1
    75   101   102    1
    76    99   100    1
    77    10    11    1
    78   117   115   ar
    79   111   114    1
    80   111   112    1
    81   115   114    1
    82    12    11    2
    83   122   112   am
    84   122   123    1
    85    11    13   am
    86   112   113    2
    87    48    49    1
    88    66    64    1
    89    62    63    2
    90    62    61    1
    91   123   124    1
    92    49    50    1
    93    13    14    1
    94    61    64    1
    95    61    60    1
    96    64    65    1
    97    17    18    1
    98    17    15   am
    99    18    19    1
   100   195   193    1
   101   193   194    1
   102   193   192    1
   103   124   125    2
   104   124   126   am
   105    14    15    1
   106    15    16    2
   107   150   148   ar
   108   150   152   ar
   109   192   189    1
   110   153   152    1
   111    59    57   ar
   112    19    21   am
   113    19    20    2
   114    53    54    2
   115    53    52    1
   116    57    58   ar
   117    57    56    1
   118   148   147   ar
   119   126   127    1
   120    21    22    1
   121   161   160   ar
   122    56    55    1
   123   190   189    1
   124   190   191    2
   125   152   151   ar
   126    55    52    1
   127   189   188    1
   128    23    24    2
   129    23    22    1
   130   160   162   ar
   131   160   159    1
   132    52    51    1
   133   200   197    1
   134    22    25    1
   135   157   156    2
   136   147   146    1
   137   147   149   ar
   138   127   130    1
   139   127   128    1
   140   158   159    1
   141   158   155    1
   142   151   149   ar
   143   188   184   am
   144   133   131   am
   145   146   143    1
   146   129   128    2
   147   130   131    1
   148    25    26    1
   149   156   155    1
   150   201   202    1
   151   201   198   am
   152   197   198    1
   153   197   196    1
   154   141   139   ar
   155   143   142    1
   156   143   144    1
   157   138   139    1
   158   138   135    1
   159   131   132    2
   160   155   154    1
   161   142   136   am
   162   185   184    2
   163   202   205    1
   164   202   203    1
   165   139   140   ar
   166   184   183    1
   167   208   206   ar
   168   137   136    2
   169   198   199    2
   170   136   135    1
   171   145   144    2
   172   206   205    1
   173   206   207   ar
   174   135   134    1
   175    26    27    1
   176   203   204    2
   177   183   182    1
   178   183   186    1
   179   177   176    2
   180    29    27   am
   181   166   165    2
   182    27    28    2
   183   176   182   am
   184   176   175    1
   185   186   187    1
   186   175   174    1
   187   175   178    1
   188   165   174   am
   189   165   164    1
   190   180   179    2
   191   178   179    1
   192   164   167    1
   193   164   163    1
   194   179   181   am
   195   167   168    1
   196   168   169    1
   197   169   170    1
   198   170   171    2
   199   171   172    1
   200   171   173    1
