@<TRIPOS>MOLECULE
tmp/2v7bB00.pdb
 89 87 0 0 0
SMALL
GASTEIGER

@<TRIPOS>ATOM
      1  N         83.5440   62.4390   58.7220 N.3   201  PHE201     -0.1227
      2  CA        84.4560   61.3140   58.6140 C.3   201  PHE201      0.1736
      3  C         83.6280   60.1050   59.0910 C.2   201  PHE201      0.2595
      4  O         83.0560   60.1050   60.1890 O.2   201  PHE201     -0.2718
      5  CB        85.7230   61.6210   59.4610 C.3   201  PHE201      0.0547
      6  CG        86.7950   60.5200   59.5240 C.ar  201  PHE201     -0.0202
      7  CD1       86.9000   59.5020   58.5700 C.ar  201  PHE201     -0.0042
      8  CD2       87.7650   60.5810   60.5400 C.ar  201  PHE201     -0.0042
      9  CE1       87.9120   58.5390   58.6570 C.ar  201  PHE201     -0.0003
     10  CE2       88.7840   59.6640   60.6340 C.ar  201  PHE201     -0.0003
     11  CZ        88.8780   58.6160   59.6890 C.ar  201  PHE201     -0.0000
     12  N         83.5680   59.0800   58.2550 N.am  202  ALA202     -0.1966
     13  CA        82.8490   57.8410   58.6160 C.3   202  ALA202      0.1728
     14  C         83.1770   57.4210   60.0380 C.2   202  ALA202      0.2616
     15  O         82.2940   57.0630   60.7650 O.2   202  ALA202     -0.2715
     16  CB        83.1780   56.7110   57.6530 C.3   202  ALA202      0.0334
     17  N         84.4460   57.4720   60.4200 N.am  203  TYR203     -0.1974
     18  CA        84.8460   57.1590   61.8140 C.3   203  TYR203      0.1639
     19  C         84.0810   57.9970   62.8610 C.2   203  TYR203      0.2290
     20  O         83.3650   57.4280   63.7370 O.2   203  TYR203     -0.2864
     21  CB        86.3810   57.2910   61.9010 C.3   203  TYR203      0.0560
     22  CG        87.0640   57.0650   63.2430 C.ar  203  TYR203     -0.0198
     23  CD1       86.7690   55.9430   64.0590 C.ar  203  TYR203     -0.0009
     24  CD2       88.0300   57.9630   63.6790 C.ar  203  TYR203     -0.0009
     25  CE1       87.4560   55.7470   65.2990 C.ar  203  TYR203      0.0417
     26  CE2       88.7130   57.7670   64.9030 C.ar  203  TYR203      0.0417
     27  CZ        88.4250   56.6590   65.6890 C.ar  203  TYR203      0.1957
     28  OH        89.0980   56.5310   66.9010 O.3   203  TYR203     -0.2866
     29  N         92.0810   55.0190   65.1900 N.3   273  ALA273     -0.1231
     30  CA        91.9640   54.4980   63.7960 C.3   273  ALA273      0.1694
     31  C         92.6040   55.4830   62.8070 C.2   273  ALA273      0.2592
     32  O         93.0910   56.5280   63.2310 O.2   273  ALA273     -0.2718
     33  CB        90.5000   54.2180   63.4300 C.3   273  ALA273      0.0304
     34  N         92.6230   55.1530   61.5090 N.am  274  GLY274     -0.1957
     35  CA        93.0320   56.1050   60.4670 C.3   274  GLY274      0.1869
     36  C         94.4470   55.8760   59.9990 C.2   274  GLY274      0.2309
     37  O         94.7070   55.8390   58.7890 O.2   274  GLY274     -0.2863
     38  N         90.9020   49.2780   62.5160 N.3   297  ILE297     -0.1231
     39  CA        90.8660   49.8250   61.1550 C.3   297  ILE297      0.1692
     40  C         89.4200   49.7950   60.6510 C.2   297  ILE297      0.2593
     41  O         88.7250   48.7820   60.8180 O.2   297  ILE297     -0.2718
     42  CB        91.7890   49.0450   60.1470 C.3   297  ILE297      0.0266
     43  CG1       91.6900   49.6210   58.7220 C.3   297  ILE297      0.0019
     44  CG2       91.4240   47.5530   60.0980 C.3   297  ILE297      0.0020
     45  CD1       92.8760   49.2090   57.8410 C.3   297  ILE297      0.0001
     46  N         88.9870   50.9110   60.0430 N.am  298  GLY298     -0.1942
     47  CA        87.6920   50.9840   59.3540 C.3   298  GLY298      0.2014
     48  C         87.9560   51.5990   57.9820 C.2   298  GLY298      0.2640
     49  O         89.1090   51.8960   57.6390 O.2   298  GLY298     -0.2714
     50  N         86.8930   51.8000   57.2180 N.am  299  SER299     -0.1935
     51  CA        86.9900   52.5190   55.9310 C.3   299  SER299      0.2055
     52  C         85.6550   53.1800   55.6230 C.2   299  SER299      0.2643
     53  O         84.6300   52.8440   56.2160 O.2   299  SER299     -0.2714
     54  CB        87.3850   51.5560   54.7990 C.3   299  SER299      0.2130
     55  OG        86.3030   50.6860   54.4590 O.3   299  SER299     -0.2179
     56  N         85.6620   54.1320   54.6980 N.am  300  THR300     -0.1950
     57  CA        84.4030   54.7320   54.2250 C.3   300  THR300      0.1897
     58  C         83.5280   53.6270   53.6260 C.2   300  THR300      0.2313
     59  O         82.3040   53.5630   53.8870 O.2   300  THR300     -0.2863
     60  CB        84.6910   55.8890   53.2260 C.3   300  THR300      0.1794
     61  OG1       85.5420   56.8260   53.8700 O.3   300  THR300     -0.2208
     62  CG2       83.4200   56.6390   52.7680 C.3   300  THR300      0.0378
     63  N         82.6520   51.6140   59.0780 N.3   304  HIS304     -0.1226
     64  CA        83.2610   51.6970   60.4210 C.3   304  HIS304      0.1752
     65  C         84.2340   50.5310   60.5620 C.2   304  HIS304      0.2595
     66  O         84.6100   49.9190   59.5680 O.2   304  HIS304     -0.2718
     67  CB        82.3140   51.8750   61.6320 C.3   304  HIS304      0.0759
     68  CG        82.8500   52.7940   62.7010 C.ar  304  HIS304      0.0818
     69  ND1       83.6530   52.3410   63.7260 N.ar  304  HIS304     -0.2268
     70  CD2       82.7030   54.1280   62.9020 C.ar  304  HIS304      0.1154
     71  CE1       83.9910   53.3590   64.5090 C.ar  304  HIS304      0.1986
     72  NE2       83.4100   54.4530   64.0410 N.ar  304  HIS304     -0.2212
     73  N         84.6440   50.2440   61.8040 N.am  305  ILE305     -0.1980
     74  CA        85.7080   49.3250   62.1380 C.3   305  ILE305      0.1595
     75  C         85.3320   47.8400   62.0610 C.2   305  ILE305      0.2287
     76  O         84.3390   47.3480   62.6840 O.2   305  ILE305     -0.2864
     77  CB        86.2680   49.6660   63.5440 C.3   305  ILE305      0.0276
     78  CG1       86.8600   51.0920   63.5300 C.3   305  ILE305      0.0022
     79  CG2       87.3210   48.6320   63.9540 C.3   305  ILE305      0.0022
     80  CD1       87.3800   51.5770   64.9370 C.3   305  ILE305      0.0001
     81  N         94.9780   61.6880   58.8160 N.3   481  LYS481     -0.1245
     82  CA        95.7420   60.7430   58.0150 C.3   481  LYS481      0.1561
     83  C         96.9160   61.4750   57.3400 C.2   481  LYS481      0.2260
     84  O         96.7360   62.5620   56.7780 O.2   481  LYS481     -0.2867
     85  CB        94.8760   60.0790   56.9300 C.3   481  LYS481      0.0271
     86  CG        93.8080   59.1430   57.4770 C.3   481  LYS481      0.0035
     87  CD        92.9010   58.5950   56.3770 C.3   481  LYS481      0.0206
     88  CE        91.8250   57.7070   57.0060 C.3   481  LYS481      0.1093
     89  NZ        91.1130   56.8750   55.9630 N.3   481  LYS481     -0.1314
@<TRIPOS>BOND
     1    62    60    1
     2    60    61    1
     3    60    57    1
     4    58    59    2
     5    58    57    1
     6    57    56    1
     7    55    54    1
     8    56    52   am
     9    54    51    1
    10    52    51    1
    11    52    53    2
    12    51    50    1
    13    89    88    1
    14    87    88    1
    15    87    86    1
    16    84    83    2
    17    85    86    1
    18    85    82    1
    19    50    48   am
    20    83    82    1
    21    49    48    2
    22    16    13    1
    23    45    43    1
    24    48    47    1
    25    82    81    1
    26    12    13    1
    27    12     3   am
    28     7     9   ar
    29     7     6   ar
    30     2     1    1
    31     2     3    1
    32     2     5    1
    33    13    14    1
    34     9    11   ar
    35    43    42    1
    36    37    36    2
    37    63    64    1
    38     3     4    2
    39    47    46    1
    40     5     6    1
    41     6     8   ar
    42    66    65    2
    43    11    10   ar
    44    36    35    1
    45    14    17   am
    46    14    15    2
    47    46    40   am
    48    44    42    1
    49    42    39    1
    50    17    18    1
    51    64    65    1
    52    64    67    1
    53    35    34    1
    54     8    10   ar
    55    65    73   am
    56    40    41    2
    57    40    39    1
    58    39    38    1
    59    34    31   am
    60    67    68    1
    61    73    74    1
    62    18    21    1
    63    18    19    1
    64    21    22    1
    65    75    74    1
    66    75    76    2
    67    74    77    1
    68    68    70   ar
    69    68    69   ar
    70    31    32    2
    71    31    30    1
    72    19    20    2
    73    70    72   ar
    74    22    24   ar
    75    22    23   ar
    76    33    30    1
    77    78    77    1
    78    78    80    1
    79    77    79    1
    80    24    26   ar
    81    69    71   ar
    82    30    29    1
    83    72    71   ar
    84    23    25   ar
    85    26    27   ar
    86    25    27   ar
    87    27    28    1
