@<TRIPOS>MOLECULE
tmp/2v7dA00.pdb
 197 183 0 0 0
SMALL
GASTEIGER

@<TRIPOS>ATOM
      1  N         39.9450   19.3010   14.6030 N.3    44  ASN44      -0.1240
      2  CA        38.6440   18.7940   15.0140 C.3    44  ASN44       0.1653
      3  C         38.6950   17.2760   14.9030 C.2    44  ASN44       0.2266
      4  O         38.4070   16.5700   15.8690 O.2    44  ASN44      -0.2867
      5  CB        37.5420   19.3680   14.1120 C.3    44  ASN44       0.1155
      6  CG        36.1300   19.0360   14.6080 C.2    44  ASN44       0.2627
      7  OD1       35.5580   17.9760   14.2810 O.2    44  ASN44      -0.2716
      8  ND2       35.5640   19.9420   15.4090 N.am   44  ASN44      -0.0877
      9  N         37.6550   15.1510   17.9720 N.3    48  VAL48      -0.1245
     10  CA        36.4960   14.2760   17.7370 C.3    48  VAL48       0.1561
     11  C         36.8330   12.8130   17.9390 C.2    48  VAL48       0.2260
     12  O         36.1690   12.1170   18.7020 O.2    48  VAL48      -0.2867
     13  CB        35.9260   14.4270   16.2850 C.3    48  VAL48       0.0252
     14  CG1       35.0330   13.2360   15.9360 C.3    48  VAL48       0.0019
     15  CG2       35.1230   15.7150   16.1660 C.3    48  VAL48       0.0019
     16  N         37.8110   12.1760   21.7770 N.3    51  LYS51      -0.1245
     17  CA        36.7570   12.3400   22.7660 C.3    51  LYS51       0.1561
     18  C         35.7390   11.2140   22.6110 C.2    51  LYS51       0.2260
     19  O         35.0960   10.8060   23.5710 O.2    51  LYS51      -0.2867
     20  CB        36.0940   13.7140   22.6290 C.3    51  LYS51       0.0271
     21  CG        35.8970   14.4280   23.9710 C.3    51  LYS51       0.0035
     22  CD        35.6750   15.9280   23.8030 C.3    51  LYS51       0.0206
     23  CE        35.7580   16.6420   25.1440 C.3    51  LYS51       0.1093
     24  NZ        35.4720   18.0890   24.9890 N.3    51  LYS51      -0.1314
     25  N         34.9530    6.0150   29.4640 N.3    58  ARG58      -0.1245
     26  CA        34.5110    6.7170   30.6610 C.3    58  ARG58       0.1563
     27  C         33.1060    6.2700   30.9790 C.2    58  ARG58       0.2260
     28  O         32.7540    6.0660   32.1390 O.2    58  ARG58      -0.2867
     29  CB        34.5110    8.2200   30.4530 C.3    58  ARG58       0.0307
     30  CG        35.8760    8.8290   30.3280 C.3    58  ARG58       0.0489
     31  CD        35.7280   10.3170   30.2200 C.3    58  ARG58       0.2205
     32  NE        35.0740   10.8570   31.4060 N.pl3  58  ARG58      -0.0865
     33  CZ        34.3170   11.9500   31.4050 C.cat  58  ARG58       0.5346
     34  NH1       34.1110   12.6140   30.2740 N.pl3  58  ARG58       0.1354
     35  NH2       33.7830   12.3920   32.5370 N.pl3  58  ARG58       0.1354
     36  N         31.9450    4.1930   34.3960 N.3    62  ARG62      -0.1245
     37  CA        30.9170    4.4990   35.3700 C.3    62  ARG62       0.1563
     38  C         29.9700    3.3090   35.5200 C.2    62  ARG62       0.2260
     39  O         29.7770    2.7960   36.6140 O.2    62  ARG62      -0.2867
     40  CB        30.1510    5.7580   34.9470 C.3    62  ARG62       0.0307
     41  CG        30.9420    7.0480   35.1400 C.3    62  ARG62       0.0489
     42  CD        30.0670    8.2730   34.9440 C.3    62  ARG62       0.2205
     43  NE        29.9320    8.6500   33.5400 N.pl3  62  ARG62      -0.0865
     44  CZ        30.8880    9.2450   32.8320 C.cat  62  ARG62       0.5346
     45  NH1       32.0520    9.5310   33.4040 N.pl3  62  ARG62       0.1354
     46  NH2       30.6780    9.5600   31.5580 N.pl3  62  ARG62       0.1354
     47  N         42.7390   23.3820   26.6780 N.3   119  LYS119     -0.1245
     48  CA        41.4820   22.9960   27.3060 C.3   119  LYS119      0.1561
     49  C         41.5060   21.4800   27.3230 C.2   119  LYS119      0.2260
     50  O         41.2320   20.8580   28.3460 O.2   119  LYS119     -0.2867
     51  CB        40.2870   23.4900   26.4880 C.3   119  LYS119      0.0271
     52  CG        38.9720   22.7930   26.8130 C.3   119  LYS119      0.0035
     53  CD        37.8390   23.3480   25.9700 C.3   119  LYS119      0.0206
     54  CE        36.6250   22.4390   25.9640 C.3   119  LYS119      0.1093
     55  NZ        36.9470   21.1560   25.2920 N.3   119  LYS119     -0.1314
     56  N         41.1480   18.8090   30.1490 N.3   123  ASP123     -0.1239
     57  CA        40.0870   17.8040   30.0310 C.3   123  ASP123      0.1674
     58  C         40.5630   16.3760   30.2840 C.2   123  ASP123      0.2266
     59  O         40.0730   15.7010   31.1990 O.2   123  ASP123     -0.2867
     60  CB        39.4260   17.8710   28.6390 C.3   123  ASP123      0.1410
     61  CG        38.3930   18.9730   28.5350 C.2   123  ASP123      0.3668
     62  OD1       38.7710   20.1540   28.5730 O.co2 123  ASP123     -0.2456
     63  OD2       37.1980   18.6610   28.4190 O.co2 123  ASP123     -0.2456
     64  N         41.7350   15.5050   33.6060 N.3   126  ARG126     -0.1231
     65  CA        40.5790   15.3940   34.4770 C.3   126  ARG126      0.1694
     66  C         39.9190   14.0190   34.3950 C.2   126  ARG126      0.2592
     67  O         39.4450   13.5080   35.4070 O.2   126  ARG126     -0.2718
     68  CB        39.5590   16.4670   34.1320 C.3   126  ARG126      0.0321
     69  CG        38.2490   16.3120   34.8830 C.3   126  ARG126      0.0489
     70  CD        37.2780   17.3720   34.4480 C.3   126  ARG126      0.2205
     71  NE        36.0630   16.8110   33.8510 N.pl3 126  ARG126     -0.0865
     72  CZ        35.6440   17.0680   32.6080 C.cat 126  ARG126      0.5346
     73  NH1       36.3510   17.8780   31.8020 N.pl3 126  ARG126      0.1354
     74  NH2       34.4940   16.5400   32.1840 N.pl3 126  ARG126      0.1354
     75  N         39.8670   13.4310   33.1950 N.am  127  TYR127     -0.1976
     76  CA        39.2730   12.0960   33.0160 C.3   127  TYR127      0.1639
     77  C         40.1890   11.0810   33.6940 C.2   127  TYR127      0.2290
     78  O         39.7400   10.0320   34.1830 O.2   127  TYR127     -0.2864
     79  CB        39.1610   11.7100   31.5290 C.3   127  TYR127      0.0560
     80  CG        38.4000   12.6760   30.6550 C.ar  127  TYR127     -0.0198
     81  CD1       37.2420   13.3020   31.1050 C.ar  127  TYR127     -0.0009
     82  CD2       38.8240   12.9380   29.3540 C.ar  127  TYR127     -0.0009
     83  CE1       36.5220   14.1710   30.2740 C.ar  127  TYR127      0.0417
     84  CE2       38.1110   13.8010   28.5160 C.ar  127  TYR127      0.0417
     85  CZ        36.9640   14.4150   28.9780 C.ar  127  TYR127      0.1957
     86  OH        36.2780   15.2750   28.1380 O.3   127  TYR127     -0.2866
     87  N         39.3820   11.3730   37.2830 N.3   130  GLU130     -0.1245
     88  CA        38.1160   10.7280   37.6290 C.3   130  GLU130      0.1567
     89  C         38.3730    9.2810   38.0480 C.2   130  GLU130      0.2260
     90  O         38.0680    8.8900   39.1700 O.2   130  GLU130     -0.2867
     91  CB        37.1470   10.7370   36.4370 C.3   130  GLU130      0.0388
     92  CG        36.6570   12.1100   35.9950 C.3   130  GLU130      0.1160
     93  CD        35.5610   12.0110   34.9480 C.2   130  GLU130      0.3649
     94  OE1       35.7920   11.3230   33.9360 O.co2 130  GLU130     -0.2457
     95  OE2       34.4770   12.6100   35.1330 O.co2 130  GLU130     -0.2457
     96  N         33.1040   27.0930   26.3490 N.3   168  GLY168     -0.1225
     97  CA        33.3150   25.6930   26.6630 C.3   168  GLY168      0.1811
     98  C         34.3740   25.5490   27.7320 C.2   168  GLY168      0.2280
     99  O         34.2320   24.7600   28.6630 O.2   168  GLY168     -0.2866
    100  N         32.8650   26.2500   30.8290 N.3   171  LEU171     -0.1231
    101  CA        31.9540   25.1520   31.1190 C.3   171  LEU171      0.1693
    102  C         32.6540   23.9500   31.7280 C.2   171  LEU171      0.2592
    103  O         32.2940   23.5080   32.8160 O.2   171  LEU171     -0.2718
    104  CB        31.2400   24.7120   29.8440 C.3   171  LEU171      0.0284
    105  CG        30.3020   23.5190   30.0130 C.3   171  LEU171      0.0019
    106  CD1       29.2070   23.8890   30.9950 C.3   171  LEU171      0.0001
    107  CD2       29.7240   23.1190   28.6630 C.3   171  LEU171      0.0001
    108  N         33.6380   23.4110   31.0070 N.am  172  ASN172     -0.1974
    109  CA        34.3940   22.2450   31.4690 C.3   172  ASN172      0.1688
    110  C         35.1660   22.5910   32.7300 C.2   172  ASN172      0.2292
    111  O         35.2610   21.7760   33.6510 O.2   172  ASN172     -0.2864
    112  CB        35.3700   21.7590   30.3880 C.3   172  ASN172      0.1181
    113  CG        34.6700   21.0430   29.2320 C.2   172  ASN172      0.2629
    114  OD1       33.4690   20.7930   29.2820 O.2   172  ASN172     -0.2716
    115  ND2       35.4190   20.7180   28.1920 N.am  172  ASN172     -0.0877
    116  N         32.9600   22.5810   35.7440 N.3   175  VAL175     -0.1245
    117  CA        32.6490   21.1950   36.0690 C.3   175  VAL175      0.1561
    118  C         33.8250   20.5290   36.7770 C.2   175  VAL175      0.2260
    119  O         33.6410   19.6360   37.6010 O.2   175  VAL175     -0.2867
    120  CB        32.3050   20.3890   34.8000 C.3   175  VAL175      0.0252
    121  CG1       31.9310   18.9560   35.1750 C.3   175  VAL175      0.0019
    122  CG2       31.1670   21.0650   34.0530 C.3   175  VAL175      0.0019
    123  N         33.4820   21.5310   40.3890 N.3   178  TYR178     -0.1227
    124  CA        32.3530   20.8880   41.0480 C.3   178  TYR178      0.1736
    125  C         32.6100   19.4160   41.3680 C.2   178  TYR178      0.2595
    126  O         32.7180   19.0390   42.5360 O.2   178  TYR178     -0.2718
    127  CB        31.0910   20.9950   40.1870 C.3   178  TYR178      0.0548
    128  CG        29.8120   20.7400   40.9560 C.ar  178  TYR178     -0.0200
    129  CD1       29.2510   21.7350   41.7540 C.ar  178  TYR178     -0.0009
    130  CD2       29.1950   19.4900   40.9300 C.ar  178  TYR178     -0.0009
    131  CE1       28.1150   21.4940   42.5090 C.ar  178  TYR178      0.0417
    132  CE2       28.0560   19.2370   41.6850 C.ar  178  TYR178      0.0417
    133  CZ        27.5240   20.2450   42.4720 C.ar  178  TYR178      0.1957
    134  OH        26.4000   20.0110   43.2250 O.3   178  TYR178     -0.2866
    135  N         32.7080   18.5900   40.3290 N.am  179  GLU179     -0.1979
    136  CA        32.9290   17.1520   40.4890 C.3   179  GLU179      0.1602
    137  C         34.3010   16.7300   41.0180 C.2   179  GLU179      0.2287
    138  O         34.3970   16.0480   42.0370 O.2   179  GLU179     -0.2864
    139  CB        32.6700   16.4440   39.1590 C.3   179  GLU179      0.0415
    140  CG        31.2110   16.1200   38.8880 C.3   179  GLU179      0.1163
    141  CD        30.9700   15.6360   37.4620 C.2   179  GLU179      0.3649
    142  OE1       31.7550   14.8000   36.9560 O.co2 179  GLU179     -0.2457
    143  OE2       29.9800   16.0890   36.8470 O.co2 179  GLU179     -0.2457
    144  N         26.6170   27.4210   18.4070 N.3   212  ASP212     -0.1239
    145  CA        27.5040   26.8530   19.4190 C.3   212  ASP212      0.1674
    146  C         27.6080   27.7200   20.6670 C.2   212  ASP212      0.2266
    147  O         27.6140   27.2060   21.7920 O.2   212  ASP212     -0.2867
    148  CB        28.8950   26.6220   18.8230 C.3   212  ASP212      0.1410
    149  CG        28.9700   25.3490   18.0030 C.2   212  ASP212      0.3668
    150  OD1       29.0060   24.2550   18.6060 O.co2 212  ASP212     -0.2456
    151  OD2       28.9850   25.4430   16.7590 O.co2 212  ASP212     -0.2456
    152  N         26.3010   26.1300   24.2820 N.3   216  ILE216     -0.1245
    153  CA        27.1360   26.0270   25.4680 C.3   216  ILE216      0.1561
    154  C         26.5600   26.7910   26.6510 C.2   216  ILE216      0.2260
    155  O         26.3910   26.2300   27.7280 O.2   216  ILE216     -0.2867
    156  CB        28.5460   26.5380   25.1690 C.3   216  ILE216      0.0252
    157  CG1       29.1430   25.7150   24.0200 C.3   216  ILE216      0.0019
    158  CG2       29.4040   26.4590   26.4210 C.3   216  ILE216      0.0019
    159  CD1       30.4730   26.2220   23.4960 C.3   216  ILE216      0.0001
    160  N         24.1580   24.9090   28.2870 N.3   219  LEU219     -0.1245
    161  CA        24.7630   23.9210   29.1630 C.3   219  LEU219      0.1561
    162  C         25.3370   24.6240   30.3780 C.2   219  LEU219      0.2260
    163  O         25.1890   24.1540   31.5010 O.2   219  LEU219     -0.2867
    164  CB        25.8580   23.1600   28.4250 C.3   219  LEU219      0.0270
    165  CG        25.3140   22.1250   27.4440 C.3   219  LEU219      0.0019
    166  CD1       26.4560   21.3700   26.7950 C.3   219  LEU219      0.0001
    167  CD2       24.4010   21.1680   28.1920 C.3   219  LEU219      0.0001
    168  N         22.3240   25.2790   32.2940 N.3   222  ASP222     -0.1225
    169  CA        21.7180   24.0420   32.7590 C.3   222  ASP222      0.1805
    170  C         22.5140   23.5670   33.9630 C.2   222  ASP222      0.2597
    171  O         21.9490   23.0600   34.9270 O.2   222  ASP222     -0.2718
    172  CB        21.7550   22.9730   31.6710 C.3   222  ASP222      0.1424
    173  CG        21.1630   23.4480   30.3670 C.2   222  ASP222      0.3668
    174  OD1       20.0850   24.0760   30.3960 O.co2 222  ASP222     -0.2456
    175  OD2       21.7750   23.1850   29.3090 O.co2 222  ASP222     -0.2456
    176  N         23.8330   23.7350   33.8990 N.am  223  ASN223     -0.1974
    177  CA        24.7080   23.3370   34.9970 C.3   223  ASN223      0.1688
    178  C         24.3380   24.1230   36.2450 C.2   223  ASN223      0.2292
    179  O         24.0230   23.5410   37.2860 O.2   223  ASN223     -0.2864
    180  CB        26.1790   23.6030   34.6550 C.3   223  ASN223      0.1181
    181  CG        26.8280   22.4580   33.8880 C.2   223  ASN223      0.2629
    182  OD1       26.8200   21.3080   34.3310 O.2   223  ASN223     -0.2716
    183  ND2       27.4070   22.7740   32.7380 N.am  223  ASN223     -0.0877
    184  N         22.6550   22.8050   39.9000 N.3   227  TRP227     -0.1241
    185  CA        23.7090   22.8580   40.9160 C.3   227  TRP227      0.1605
    186  C         23.1210   23.4920   42.1900 C.2   227  TRP227      0.2264
    187  O         23.6470   23.3130   43.2910 O.2   227  TRP227     -0.2867
    188  CB        24.9330   23.6550   40.4240 C.3   227  TRP227      0.0550
    189  CG        26.0280   22.7940   39.8040 C.ar  227  TRP227      0.0003
    190  CD1       26.2070   21.4480   39.9660 C.ar  227  TRP227      0.0946
    191  CD2       27.1010   23.2360   38.9590 C.ar  227  TRP227      0.0152
    192  NE1       27.3190   21.0240   39.2790 N.ar  227  TRP227     -0.2442
    193  CE2       27.8860   22.0990   38.6500 C.ar  227  TRP227      0.0810
    194  CE3       27.4750   24.4810   38.4330 C.ar  227  TRP227      0.0012
    195  CZ2       29.0210   22.1710   37.8370 C.ar  227  TRP227      0.0191
    196  CZ3       28.6100   24.5530   37.6210 C.ar  227  TRP227      0.0001
    197  CH2       29.3670   23.4020   37.3320 C.ar  227  TRP227      0.0015
@<TRIPOS>BOND
     1     5     6    1
     2     5     2    1
     3     7     6    2
     4     1     2    1
     5     6     8   am
     6     3     2    1
     7     3     4    2
     8    14    13    1
     9    15    13    1
    10    13    10    1
    11   151   149   ar
    12    10    11    1
    13    10     9    1
    14    11    12    2
    15   149   150   ar
    16   149   148    1
    17   144   145    1
    18   148   145    1
    19   145   146    1
    20   146   147    2
    21    16    17    1
    22    18    17    1
    23    18    19    2
    24    20    17    1
    25    20    21    1
    26   159   157    1
    27    22    21    1
    28    22    23    1
    29   157   156    1
    30   152   153    1
    31    24    23    1
    32   156   153    1
    33   156   158    1
    34    55    54    1
    35   153   154    1
    36    54    53    1
    37    53    52    1
    38    96    97    1
    39    51    52    1
    40    51    48    1
    41   154   155    2
    42    97    98    1
    43    47    48    1
    44   166   165    1
    45    48    49    1
    46    49    50    2
    47   165   167    1
    48   165   164    1
    49    98    99    2
    50    86    85    1
    51   115   113   am
    52   160   161    1
    53    63    61   ar
    54   164   161    1
    55    84    85   ar
    56    84    82   ar
    57    61    62   ar
    58    61    60    1
    59    60    57    1
    60   107   105    1
    61    85    83   ar
    62   161   162    1
    63   113   114    2
    64   113   112    1
    65   175   173   ar
    66    82    80   ar
    67    25    26    1
    68   104   105    1
    69   104   101    1
    70   105   106    1
    71    57    56    1
    72    57    58    1
    73    31    30    1
    74    31    32    1
    75    34    33    1
    76    83    81   ar
    77    58    59    2
    78    30    29    1
    79   173   174   ar
    80   173   172    1
    81   162   163    2
    82   112   109    1
    83    29    26    1
    84    80    81   ar
    85    80    79    1
    86    26    27    1
    87   100   101    1
    88    27    28    2
    89   108   109    1
    90   108   102   am
    91   101   102    1
    92    33    32    2
    93    33    35    1
    94   109   110    1
    95    79    76    1
    96    46    44    1
    97   172   169    1
    98   102   103    2
    99    73    72    1
   100    74    72    1
   101   168   169    1
   102    72    71    2
   103   110   111    2
   104   183   181   am
   105   169   170    1
   106    44    45    1
   107    44    43    2
   108    76    75    1
   109    76    77    1
   110    75    66   am
   111    43    42    1
   112    64    65    1
   113    77    78    2
   114    71    70    1
   115   181   182    2
   116   181   180    1
   117   176   170   am
   118   176   177    1
   119    94    93   ar
   120   170   171    2
   121   122   120    1
   122    68    65    1
   123    68    69    1
   124    66    65    1
   125    66    67    2
   126    36    37    1
   127    70    69    1
   128   180   177    1
   129   120   121    1
   130   120   117    1
   131    42    41    1
   132    40    41    1
   133    40    37    1
   134    93    95   ar
   135    93    92    1
   136   177   178    1
   137    37    38    1
   138    38    39    2
   139   116   117    1
   140    92    91    1
   141   117   118    1
   142   178   179    2
   143    91    88    1
   144   118   119    2
   145   143   141   ar
   146   142   141   ar
   147    87    88    1
   148   197   196   ar
   149   197   195   ar
   150   141   140    1
   151   196   194   ar
   152    88    89    1
   153   195   193   ar
   154    89    90    2
   155   194   191   ar
   156   193   191   ar
   157   193   192   ar
   158   140   139    1
   159   191   189   ar
   160   139   136    1
   161   192   190   ar
   162   189   190   ar
   163   189   188    1
   164   184   185    1
   165   127   128    1
   166   127   124    1
   167   135   136    1
   168   135   125   am
   169   123   124    1
   170   188   185    1
   171   136   137    1
   172   185   186    1
   173   130   128   ar
   174   130   132   ar
   175   128   129   ar
   176   137   138    2
   177   124   125    1
   178   125   126    2
   179   132   133   ar
   180   129   131   ar
   181   186   187    2
   182   133   131   ar
   183   133   134    1
