@<TRIPOS>MOLECULE
tmp/2v7oA00.pdb
 150 139 0 0 0
SMALL
GASTEIGER

@<TRIPOS>ATOM
      1  N        -17.6580  -20.5330  -15.4030 N.3    24  LEU24      -0.1231
      2  CA       -17.3280  -21.9280  -15.6910 C.3    24  LEU24       0.1693
      3  C        -18.5990  -22.7920  -15.6340 C.2    24  LEU24       0.2593
      4  O        -18.7660  -23.7040  -16.4390 O.2    24  LEU24      -0.2718
      5  CB       -16.3130  -22.4600  -14.6730 C.3    24  LEU24       0.0284
      6  CG       -15.0700  -21.6310  -14.3470 C.3    24  LEU24       0.0019
      7  CD1      -14.2700  -22.3130  -13.2340 C.3    24  LEU24       0.0001
      8  CD2      -14.2110  -21.4190  -15.5660 C.3    24  LEU24       0.0001
      9  N        -19.4650  -22.4860  -14.6600 N.am   25  GLY25      -0.1942
     10  CA       -20.7350  -23.1790  -14.4190 C.3    25  GLY25       0.2014
     11  C        -21.6810  -22.3730  -13.5250 C.2    25  GLY25       0.2638
     12  O        -21.3800  -21.2420  -13.1390 O.2    25  GLY25      -0.2714
     13  N        -22.8160  -22.9760  -13.1750 N.am   26  LYS26      -0.1977
     14  CA       -23.9650  -22.2380  -12.6430 C.3    26  LYS26       0.1596
     15  C        -24.9980  -23.2280  -12.0690 C.2    26  LYS26       0.2287
     16  O        -25.0770  -24.3720  -12.5180 O.2    26  LYS26      -0.2864
     17  CB       -24.5690  -21.3830  -13.7800 C.3    26  LYS26       0.0298
     18  CG       -25.7550  -20.5140  -13.4240 C.3    26  LYS26       0.0038
     19  CD       -26.4350  -20.0540  -14.7270 C.3    26  LYS26       0.0206
     20  CE       -27.3350  -18.8330  -14.6310 C.3    26  LYS26       0.1093
     21  NZ       -28.0660  -18.5810  -15.8870 N.3    26  LYS26      -0.1314
     22  N        -20.1710  -20.3740  -10.5350 N.3    31  VAL31      -0.1245
     23  CA       -18.7230  -20.5390  -10.4140 C.3    31  VAL31       0.1561
     24  C        -18.0440  -19.8000  -11.5690 C.2    31  VAL31       0.2260
     25  O        -18.3610  -20.0160  -12.7490 O.2    31  VAL31      -0.2867
     26  CB       -18.3230  -22.0280  -10.3720 C.3    31  VAL31       0.0252
     27  CG1      -16.8290  -22.1870  -10.1330 C.3    31  VAL31       0.0019
     28  CG2      -19.0960  -22.7340   -9.2790 C.3    31  VAL31       0.0019
     29  N        -11.1150  -20.5410   -8.7000 N.3    44  ALA44      -0.1245
     30  CA       -12.5000  -20.6730   -9.1070 C.3    44  ALA44       0.1562
     31  C        -13.3410  -20.1700   -7.9300 C.2    44  ALA44       0.2260
     32  O        -13.3550  -20.7930   -6.8710 O.2    44  ALA44      -0.2867
     33  CB       -12.8240  -22.1630   -9.4170 C.3    44  ALA44       0.0290
     34  N        -16.9000  -19.7260   -6.3470 N.3    46  LYS46      -0.1245
     35  CA       -18.3430  -19.9190   -6.2830 C.3    46  LYS46       0.1561
     36  C        -18.9340  -18.6700   -5.6260 C.2    46  LYS46       0.2260
     37  O        -18.5000  -18.2580   -4.5470 O.2    46  LYS46      -0.2867
     38  CB       -18.6960  -21.1790   -5.5040 C.3    46  LYS46       0.0271
     39  CG       -20.1880  -21.4510   -5.3550 C.3    46  LYS46       0.0035
     40  CD       -20.4060  -22.6850   -4.4810 C.3    46  LYS46       0.0206
     41  CE       -21.8810  -22.9640   -4.2130 C.3    46  LYS46       0.1093
     42  NZ       -22.0730  -24.3910   -3.8700 N.3    46  LYS46      -0.1314
     43  N        -21.4870  -25.7210    4.1140 N.3    64  GLU64      -0.1245
     44  CA       -20.6410  -25.9960    2.9660 C.3    64  GLU64       0.1567
     45  C        -19.2730  -25.3600    3.1760 C.2    64  GLU64       0.2260
     46  O        -18.2510  -26.0160    2.9930 O.2    64  GLU64      -0.2867
     47  CB       -21.2750  -25.4750    1.6610 C.3    64  GLU64       0.0388
     48  CG       -20.2940  -25.5080    0.4790 C.3    64  GLU64       0.1160
     49  CD       -20.9340  -25.2250   -0.8810 C.2    64  GLU64       0.3649
     50  OE1      -22.0790  -24.7020   -0.9140 O.co2  64  GLU64      -0.2457
     51  OE2      -20.2680  -25.5350   -1.9090 O.co2  64  GLU64      -0.2457
     52  N        -10.6630  -30.9770   -3.8780 N.3    77  VAL77      -0.1245
     53  CA       -10.3920  -29.6060   -4.3180 C.3    77  VAL77       0.1561
     54  C        -10.3600  -28.7140   -3.0890 C.2    77  VAL77       0.2260
     55  O        -11.3320  -28.6700   -2.3350 O.2    77  VAL77      -0.2867
     56  CB       -11.4420  -29.0350   -5.2980 C.3    77  VAL77       0.0252
     57  CG1      -11.0140  -27.6380   -5.7390 C.3    77  VAL77       0.0019
     58  CG2      -11.6250  -29.9290   -6.5100 C.3    77  VAL77       0.0019
     59  N        -11.8670  -21.5120   -4.4990 N.3    93  PHE93      -0.1227
     60  CA       -11.2620  -22.8380   -4.5780 C.3    93  PHE93       0.1736
     61  C        -10.0710  -22.8030   -5.5090 C.2    93  PHE93       0.2595
     62  O         -9.9490  -21.9130   -6.3480 O.2    93  PHE93      -0.2718
     63  CB       -12.2630  -23.8520   -5.1520 C.3    93  PHE93       0.0547
     64  CG       -13.4300  -24.1450   -4.2550 C.ar   93  PHE93      -0.0202
     65  CD1      -14.6450  -23.5060   -4.4480 C.ar   93  PHE93      -0.0042
     66  CD2      -13.3210  -25.0700   -3.2250 C.ar   93  PHE93      -0.0042
     67  CE1      -15.7370  -23.7700   -3.6120 C.ar   93  PHE93      -0.0003
     68  CE2      -14.3930  -25.3220   -2.3740 C.ar   93  PHE93      -0.0003
     69  CZ       -15.6050  -24.6780   -2.5720 C.ar   93  PHE93      -0.0000
     70  N         -9.2040  -23.7960   -5.3770 N.am   94  ASP94      -0.1960
     71  CA        -8.2590  -24.1270   -6.4420 C.3    94  ASP94       0.1840
     72  C         -8.9900  -24.2740   -7.7850 C.2    94  ASP94       0.2622
     73  O        -10.0890  -24.7930   -7.8230 O.2    94  ASP94      -0.2715
     74  CB        -7.5310  -25.4400   -6.1080 C.3    94  ASP94       0.1450
     75  CG        -6.4420  -25.2560   -5.0550 C.2    94  ASP94       0.3671
     76  OD1       -6.2260  -24.1040   -4.6050 O.co2  94  ASP94      -0.2456
     77  OD2       -5.8030  -26.2670   -4.6760 O.co2  94  ASP94      -0.2456
     78  N         -8.3880  -23.7810   -8.8640 N.am   95  LEU95      -0.1963
     79  CA        -8.9180  -23.9790  -10.2130 C.3    95  LEU95       0.1728
     80  C         -8.4230  -25.3340  -10.7250 C.2    95  LEU95       0.2616
     81  O         -7.2190  -25.5840  -10.7500 O.2    95  LEU95      -0.2715
     82  CB        -8.4490  -22.8560  -11.1650 C.3    95  LEU95       0.0311
     83  CG        -9.1440  -22.7480  -12.5370 C.3    95  LEU95       0.0022
     84  CD1      -10.4480  -21.9820  -12.4310 C.3    95  LEU95       0.0001
     85  CD2       -8.2480  -22.1030  -13.6080 C.3    95  LEU95       0.0001
     86  N         -9.3440  -26.2020  -11.1280 N.am   96  VAL96      -0.1963
     87  CA        -8.9860  -27.5130  -11.6380 C.3    96  VAL96       0.1727
     88  C         -9.2590  -27.4770  -13.1340 C.2    96  VAL96       0.2616
     89  O        -10.3790  -27.1930  -13.5550 O.2    96  VAL96      -0.2715
     90  CB        -9.7150  -28.6810  -10.8810 C.3    96  VAL96       0.0290
     91  CG1       -9.3990  -28.6200   -9.3990 C.3    96  VAL96       0.0023
     92  CG2      -11.1970  -28.6390  -11.0730 C.3    96  VAL96       0.0023
     93  N         -8.2040  -27.6890  -13.9280 N.am   97  THR97      -0.1951
     94  CA        -8.2450  -27.4740  -15.3880 C.3    97  THR97       0.1897
     95  C         -8.1580  -28.7410  -16.2610 C.2    97  THR97       0.2313
     96  O         -8.0570  -28.6350  -17.4850 O.2    97  THR97      -0.2863
     97  CB        -7.1040  -26.5220  -15.8360 C.3    97  THR97       0.1794
     98  OG1       -5.8500  -27.0280  -15.3660 O.3    97  THR97      -0.2208
     99  CG2       -7.3200  -25.0870  -15.3110 C.3    97  THR97       0.0378
    100  N        -10.4860  -31.1210  -16.5340 N.3    99  GLY99      -0.1225
    101  CA       -11.8020  -31.6390  -16.8860 C.3    99  GLY99       0.1811
    102  C        -12.1840  -32.9000  -16.1320 C.2    99  GLY99       0.2280
    103  O        -11.4600  -33.3640  -15.2500 O.2    99  GLY99      -0.2866
    104  N        -20.4490  -38.7060   -8.2530 N.3   141  LYS141     -0.1245
    105  CA       -20.8380  -38.9680   -9.6290 C.3   141  LYS141      0.1561
    106  C        -19.7380  -38.4390  -10.5280 C.2   141  LYS141      0.2260
    107  O        -18.8850  -37.6990  -10.0550 O.2   141  LYS141     -0.2867
    108  CB       -22.1690  -38.2870   -9.9740 C.3   141  LYS141      0.0271
    109  CG       -22.2260  -36.8110   -9.6890 C.3   141  LYS141      0.0035
    110  CD       -23.5460  -36.2890  -10.1580 C.3   141  LYS141      0.0206
    111  CE       -23.7920  -34.8480   -9.7550 C.3   141  LYS141      0.1093
    112  NZ       -25.2110  -34.4630  -10.0780 N.3   141  LYS141     -0.1314
    113  N        -19.5910  -36.0720  -12.9280 N.3   143  GLU143     -0.1231
    114  CA       -19.5030  -34.6130  -12.9330 C.3   143  GLU143      0.1699
    115  C        -18.6320  -34.0170  -11.8070 C.2   143  GLU143      0.2592
    116  O        -18.1350  -32.8900  -11.9380 O.2   143  GLU143     -0.2718
    117  CB       -20.9190  -34.0110  -12.8400 C.3   143  GLU143      0.0402
    118  CG       -21.8030  -34.2010  -14.0900 C.3   143  GLU143      0.1161
    119  CD       -22.4020  -35.6160  -14.2600 C.2   143  GLU143      0.3649
    120  OE1      -22.2340  -36.4870  -13.3800 O.co2 143  GLU143     -0.2457
    121  OE2      -23.0400  -35.8530  -15.3100 O.co2 143  GLU143     -0.2457
    122  N        -18.4730  -34.7550  -10.7020 N.am  144  ASN144     -0.1974
    123  CA       -17.7820  -34.2560   -9.4910 C.3   144  ASN144      0.1688
    124  C        -16.4010  -34.8740   -9.2800 C.2   144  ASN144      0.2292
    125  O        -15.7780  -34.7030   -8.2300 O.2   144  ASN144     -0.2864
    126  CB       -18.6420  -34.5270   -8.2680 C.3   144  ASN144      0.1181
    127  CG       -19.8550  -33.6160   -8.1900 C.2   144  ASN144      0.2629
    128  OD1      -19.8740  -32.5370   -8.7710 O.2   144  ASN144     -0.2716
    129  ND2      -20.8600  -34.0410   -7.4460 N.am  144  ASN144     -0.0877
    130  N        -12.9770  -34.7270  -11.0450 N.3   146  LEU146     -0.1245
    131  CA       -12.2980  -33.8700  -11.9700 C.3   146  LEU146      0.1561
    132  C        -10.8220  -34.1620  -11.9020 C.2   146  LEU146      0.2260
    133  O        -10.3420  -34.6790  -10.9100 O.2   146  LEU146     -0.2867
    134  CB       -12.5570  -32.4110  -11.6000 C.3   146  LEU146      0.0270
    135  CG       -14.0080  -31.9140  -11.6270 C.3   146  LEU146      0.0019
    136  CD1      -14.0420  -30.4360  -11.2650 C.3   146  LEU146      0.0001
    137  CD2      -14.6580  -32.1570  -12.9820 C.3   146  LEU146      0.0001
    138  N        -15.0710  -32.8250   -5.9790 N.3   159  ALA159     -0.1231
    139  CA       -15.5670  -31.4560   -6.0530 C.3   159  ALA159      0.1694
    140  C        -17.0140  -31.4150   -5.6100 C.2   159  ALA159      0.2592
    141  O        -17.6740  -32.4460   -5.5200 O.2   159  ALA159     -0.2718
    142  CB       -15.4300  -30.8770   -7.4950 C.3   159  ALA159      0.0304
    143  N        -17.4790  -30.2040   -5.3190 N.am  160  ASP160     -0.1974
    144  CA       -18.8790  -29.9270   -5.0460 C.3   160  ASP160      0.1709
    145  C        -19.4080  -30.5960   -3.7780 C.2   160  ASP160      0.2293
    146  O        -20.0860  -31.6460   -3.8160 O.2   160  ASP160     -0.2864
    147  CB       -19.7680  -30.2430   -6.2530 C.3   160  ASP160      0.1436
    148  CG       -21.1510  -29.5850   -6.1490 C.2   160  ASP160      0.3671
    149  OD1      -21.4680  -29.0370   -5.0720 O.co2 160  ASP160     -0.2456
    150  OD2      -21.9210  -29.6240   -7.1330 O.co2 160  ASP160     -0.2456
@<TRIPOS>BOND
     1    96    95    2
     2   101   100    1
     3   101   102    1
     4     4     3    2
     5    95    94    1
     6   102   103    2
     7    21    20    1
     8    97    94    1
     9    97    98    1
    10    97    99    1
    11     2     3    1
    12     2     1    1
    13     2     5    1
    14     3     9   am
    15     8     6    1
    16    94    93    1
    17   121   119   ar
    18    19    20    1
    19    19    18    1
    20     5     6    1
    21     9    10    1
    22    10    11    1
    23     6     7    1
    24   119   118    1
    25   119   120   ar
    26   118   117    1
    27    93    88   am
    28    17    18    1
    29    17    14    1
    30    85    83    1
    31    89    88    2
    32    11    13   am
    33    11    12    2
    34    13    14    1
    35    88    87    1
    36   137   135    1
    37   114   113    1
    38   114   117    1
    39   114   115    1
    40    25    24    2
    41    14    15    1
    42    83    84    1
    43    83    82    1
    44    16    15    2
    45   131   132    1
    46   131   134    1
    47   131   130    1
    48   116   115    2
    49   132   133    2
    50   115   122   am
    51    87    86    1
    52    87    90    1
    53   135   134    1
    54   135   136    1
    55    24    23    1
    56    82    79    1
    57    86    80   am
    58    92    90    1
    59    90    91    1
    60    81    80    2
    61    80    79    1
    62   122   123    1
    63    22    23    1
    64   106   107    2
    65   106   105    1
    66    23    26    1
    67    26    27    1
    68    26    28    1
    69    79    78    1
    70   110   111    1
    71   110   109    1
    72   112   111    1
    73   108   109    1
    74   108   105    1
    75   105   104    1
    76   123   124    1
    77   123   126    1
    78    33    30    1
    79   124   125    2
    80    30    29    1
    81    30    31    1
    82    78    72   am
    83   128   127    2
    84   126   127    1
    85   127   129   am
    86    31    32    2
    87    73    72    2
    88    72    71    1
    89   142   139    1
    90   150   148   ar
    91    58    56    1
    92    71    74    1
    93    71    70    1
    94    62    61    2
    95    34    35    1
    96    35    36    1
    97    35    38    1
    98   147   148    1
    99   147   144    1
   100   148   149   ar
   101    74    75    1
   102   139   138    1
   103   139   140    1
   104    57    56    1
   105    36    37    2
   106   140   141    2
   107   140   143   am
   108    61    70   am
   109    61    60    1
   110    38    39    1
   111    39    40    1
   112   143   144    1
   113    56    53    1
   114    63    60    1
   115    63    64    1
   116    75    77   ar
   117    75    76   ar
   118   144   145    1
   119    60    59    1
   120    40    41    1
   121    65    64   ar
   122    65    67   ar
   123    53    52    1
   124    53    54    1
   125    64    66   ar
   126    41    42    1
   127   146   145    2
   128    67    69   ar
   129    66    68   ar
   130    54    55    2
   131    69    68   ar
   132    51    49   ar
   133    50    49   ar
   134    49    48    1
   135    48    47    1
   136    47    44    1
   137    44    45    1
   138    44    43    1
   139    46    45    2
