@<TRIPOS>MOLECULE
tmp/2v7xA01.pdb
 99 98 0 0 0
SMALL
GASTEIGER

@<TRIPOS>ATOM
      1  N         32.7310   12.9900   58.9130 N.3   203  ASP203     -0.1225
      2  CA        33.1320   13.2630   60.2570 C.3   203  ASP203      0.1805
      3  C         34.2140   14.3420   60.2330 C.2   203  ASP203      0.2597
      4  O         35.4040   14.0360   60.0780 O.2   203  ASP203     -0.2718
      5  CB        33.6400   11.9750   60.8610 C.3   203  ASP203      0.1424
      6  CG        34.1110   12.1440   62.2620 C.2   203  ASP203      0.3668
      7  OD1       33.6150   13.0560   62.9810 O.co2 203  ASP203     -0.2456
      8  OD2       34.9950   11.3380   62.6310 O.co2 203  ASP203     -0.2456
      9  N         33.7850   15.6030   60.3480 N.am  204  HIS204     -0.1975
     10  CA        34.7170   16.7350   60.3670 C.3   204  HIS204      0.1656
     11  C         35.3440   16.8430   61.7520 C.2   204  HIS204      0.2291
     12  O         34.6970   16.5210   62.7460 O.2   204  HIS204     -0.2864
     13  CB        34.0180   18.0410   59.9980 C.3   204  HIS204      0.0771
     14  CG        33.1640   17.9380   58.7720 C.ar  204  HIS204      0.0820
     15  ND1       33.6950   17.7400   57.5190 N.ar  204  HIS204     -0.2267
     16  CD2       31.8190   17.9730   58.6160 C.ar  204  HIS204      0.1154
     17  CE1       32.7120   17.6910   56.6330 C.ar  204  HIS204      0.1986
     18  NE2       31.5630   17.8060   57.2770 N.ar  204  HIS204     -0.2212
     19  N         38.0130   15.5150   60.3280 N.3   206  PHE206     -0.1241
     20  CA        38.9400   14.4670   59.8700 C.3   206  PHE206      0.1605
     21  C         38.6900   13.9590   58.4640 C.2   206  PHE206      0.2264
     22  O         39.5950   13.4350   57.8150 O.2   206  PHE206     -0.2867
     23  CB        38.9020   13.3110   60.8370 C.3   206  PHE206      0.0534
     24  CG        38.9540   13.7540   62.2360 C.ar  206  PHE206     -0.0203
     25  CD1       40.1050   14.3470   62.7280 C.ar  206  PHE206     -0.0042
     26  CD2       37.8530   13.6150   63.0630 C.ar  206  PHE206     -0.0042
     27  CE1       40.1610   14.7980   64.0440 C.ar  206  PHE206     -0.0003
     28  CE2       37.9130   14.0490   64.3790 C.ar  206  PHE206     -0.0003
     29  CZ        39.0460   14.6500   64.8610 C.ar  206  PHE206     -0.0000
     30  N         36.4780   11.6100   57.9310 N.3   208  ASN208     -0.1240
     31  CA        36.0550   10.2260   58.0290 C.3   208  ASN208      0.1653
     32  C         34.6760   10.1270   57.4500 C.2   208  ASN208      0.2266
     33  O         33.9250   11.1040   57.4730 O.2   208  ASN208     -0.2867
     34  CB        36.0040    9.7900   59.4740 C.3   208  ASN208      0.1155
     35  CG        37.3150    9.9490   60.1520 C.2   208  ASN208      0.2627
     36  OD1       38.3630    9.7970   59.5340 O.2   208  ASN208     -0.2716
     37  ND2       37.2750   10.2630   61.4230 N.am  208  ASN208     -0.0877
     38  N         31.0820    8.4000   57.7350 N.3   210  TRP210     -0.1241
     39  CA        30.1920    7.6290   58.5520 C.3   210  TRP210      0.1605
     40  C         29.0170    7.1850   57.7110 C.2   210  TRP210      0.2264
     41  O         28.4670    7.9780   56.9380 O.2   210  TRP210     -0.2867
     42  CB        29.6670    8.4630   59.7210 C.3   210  TRP210      0.0550
     43  CG        30.6820    8.7980   60.7830 C.ar  210  TRP210      0.0003
     44  CD1       31.9710    8.3560   60.8740 C.ar  210  TRP210      0.0946
     45  CD2       30.4500    9.5970   61.9410 C.ar  210  TRP210      0.0152
     46  NE1       32.5580    8.8300   62.0230 N.ar  210  TRP210     -0.2442
     47  CE2       31.6400    9.5870   62.7030 C.ar  210  TRP210      0.0810
     48  CE3       29.3380   10.3010   62.4240 C.ar  210  TRP210      0.0012
     49  CZ2       31.7700   10.2940   63.9110 C.ar  210  TRP210      0.0191
     50  CZ3       29.4580   10.9890   63.6260 C.ar  210  TRP210      0.0001
     51  CH2       30.6720   10.9840   64.3530 C.ar  210  TRP210      0.0015
     52  N         41.5280    3.3480   63.5510 N.3   247  PHE247     -0.1241
     53  CA        42.1670    3.8310   62.3360 C.3   247  PHE247      0.1605
     54  C         43.5490    3.2270   62.1490 C.2   247  PHE247      0.2264
     55  O         43.9050    2.8300   61.0420 O.2   247  PHE247     -0.2867
     56  CB        42.2820    5.3560   62.3580 C.3   247  PHE247      0.0534
     57  CG        41.0220    6.0620   62.7630 C.ar  247  PHE247     -0.0203
     58  CD1       39.9910    6.2340   61.8550 C.ar  247  PHE247     -0.0042
     59  CD2       40.8740    6.5480   64.0550 C.ar  247  PHE247     -0.0042
     60  CE1       38.8290    6.8850   62.2160 C.ar  247  PHE247     -0.0003
     61  CE2       39.7330    7.2210   64.4290 C.ar  247  PHE247     -0.0003
     62  CZ        38.6890    7.3850   63.5000 C.ar  247  PHE247     -0.0000
     63  N         35.7500    0.6700   59.9950 N.3   259  TYR259     -0.1241
     64  CA        35.6790    0.5900   61.4420 C.3   259  TYR259      0.1605
     65  C         34.2680    0.9350   61.8800 C.2   259  TYR259      0.2264
     66  O         33.4350    1.3460   61.0700 O.2   259  TYR259     -0.2867
     67  CB        36.7140    1.5320   62.1060 C.3   259  TYR259      0.0534
     68  CG        36.4330    2.9850   61.8700 C.ar  259  TYR259     -0.0201
     69  CD1       35.8570    3.7880   62.8740 C.ar  259  TYR259     -0.0009
     70  CD2       36.7100    3.5710   60.6300 C.ar  259  TYR259     -0.0009
     71  CE1       35.5720    5.1210   62.6300 C.ar  259  TYR259      0.0417
     72  CE2       36.4350    4.8970   60.3850 C.ar  259  TYR259      0.0417
     73  CZ        35.8740    5.6650   61.3800 C.ar  259  TYR259      0.1957
     74  OH        35.5910    6.9760   61.1080 O.3   259  TYR259     -0.2866
     75  N         32.4300    3.5740   64.2110 N.3   261  ASN261     -0.1225
     76  CA        32.7170    4.8450   64.8450 C.3   261  ASN261      0.1785
     77  C         32.1880    4.8340   66.2820 C.2   261  ASN261      0.2598
     78  O         31.5920    3.8490   66.7090 O.2   261  ASN261     -0.2718
     79  CB        32.1520    6.0300   64.0280 C.3   261  ASN261      0.1169
     80  CG        30.6510    6.0160   63.9220 C.2   261  ASN261      0.2627
     81  OD1       29.9580    5.4050   64.7270 O.2   261  ASN261     -0.2716
     82  ND2       30.1300    6.7050   62.9170 N.am  261  ASN261     -0.0877
     83  N         32.4090    5.9380   66.9860 N.am  262  SER262     -0.1938
     84  CA        32.1070    6.0710   68.4060 C.3   262  SER262      0.2055
     85  C         30.6180    6.1430   68.6420 C.2   262  SER262      0.2642
     86  O         30.1670    6.0810   69.7700 O.2   262  SER262     -0.2714
     87  CB        32.7810    7.3300   68.9750 C.3   262  SER262      0.2130
     88  OG        32.0380    8.5120   68.6220 O.3   262  SER262     -0.2179
     89  N         29.8490    6.2400   67.5690 N.am  263  ARG263     -0.1977
     90  CA        28.3930    6.2630   67.6630 C.3   263  ARG263      0.1597
     91  C         27.8480    4.8890   67.3170 C.2   263  ARG263      0.2287
     92  O         26.6450    4.7080   67.3150 O.2   263  ARG263     -0.2864
     93  CB        27.7640    7.3300   66.7380 C.3   263  ARG263      0.0334
     94  CG        28.6380    8.6080   66.5620 C.3   263  ARG263      0.0492
     95  CD        29.0070    9.1830   67.9380 C.3   263  ARG263      0.2205
     96  NE        29.7730   10.4090   67.8150 N.pl3 263  ARG263     -0.0865
     97  CZ        29.2260   11.6140   67.8060 C.cat 263  ARG263      0.5346
     98  NH1       27.8980   11.7460   67.9600 N.pl3 263  ARG263      0.1354
     99  NH2       30.0090   12.6820   67.6710 N.pl3 263  ARG263      0.1354
@<TRIPOS>BOND
     1    17    18   ar
     2    17    15   ar
     3    41    40    2
     4    18    16   ar
     5    32    33    2
     6    32    31    1
     7    15    14   ar
     8    40    39    1
     9    38    39    1
    10    22    21    2
    11    30    31    1
    12    31    34    1
    13    21    20    1
    14    39    42    1
    15    16    14   ar
    16    14    13    1
    17     1     2    1
    18    34    35    1
    19    36    35    2
    20    42    43    1
    21    20    19    1
    22    20    23    1
    23    63    64    1
    24    13    10    1
    25     4     3    2
    26    35    37   am
    27     3     2    1
    28     3     9   am
    29     2     5    1
    30     9    10    1
    31    10    11    1
    32    72    70   ar
    33    72    73   ar
    34    70    68   ar
    35    43    44   ar
    36    43    45   ar
    37    23    24    1
    38     5     6    1
    39    44    46   ar
    40    55    54    2
    41    66    65    2
    42    74    73    1
    43    73    71   ar
    44    64    65    1
    45    64    67    1
    46    11    12    2
    47    58    60   ar
    48    58    57   ar
    49    68    67    1
    50    68    69   ar
    51    45    48   ar
    52    45    47   ar
    53    46    47   ar
    54    54    53    1
    55    60    62   ar
    56    24    25   ar
    57    24    26   ar
    58     6     8   ar
    59     6     7   ar
    60    53    56    1
    61    53    52    1
    62    56    57    1
    63    48    50   ar
    64    71    69   ar
    65    47    49   ar
    66    25    27   ar
    67    57    59   ar
    68    82    80   am
    69    26    28   ar
    70    62    61   ar
    71    50    51   ar
    72    49    51   ar
    73    80    79    1
    74    80    81    2
    75    79    76    1
    76    27    29   ar
    77    59    61   ar
    78    75    76    1
    79    28    29   ar
    80    76    77    1
    81    77    78    2
    82    77    83   am
    83    94    93    1
    84    94    95    1
    85    93    90    1
    86    83    84    1
    87    92    91    2
    88    91    90    1
    89    89    90    1
    90    89    85   am
    91    99    97    1
    92    97    96    2
    93    97    98    1
    94    96    95    1
    95    84    85    1
    96    84    87    1
    97    88    87    1
    98    85    86    2
