@<TRIPOS>MOLECULE
tmp/2v7yA00.pdb
 169 157 0 0 0
SMALL
GASTEIGER

@<TRIPOS>ATOM
      1  N        -23.0850   15.6080  -50.2130 N.3     8  ASP8       -0.1239
      2  CA       -22.5490   16.5070  -51.2200 C.3     8  ASP8        0.1674
      3  C        -23.5110   16.3310  -52.4080 C.2     8  ASP8        0.2266
      4  O        -23.4040   15.3560  -53.1480 O.2     8  ASP8       -0.2867
      5  CB       -21.1260   16.0930  -51.6140 C.3     8  ASP8        0.1410
      6  CG       -20.6540   16.7500  -52.9060 C.2     8  ASP8        0.3668
      7  OD1      -19.4950   16.5060  -53.2950 O.co2   8  ASP8       -0.2456
      8  OD2      -21.4300   17.4930  -53.5430 O.co2   8  ASP8       -0.2456
      9  N        -24.0610   17.3720  -55.6130 N.3    10  GLY10      -0.1210
     10  CA       -23.4060   18.0730  -56.6990 C.3    10  GLY10       0.1956
     11  C        -24.1120   18.1790  -58.0310 C.2    10  GLY10       0.2613
     12  O        -25.0800   17.4730  -58.3010 O.2    10  GLY10      -0.2717
     13  N        -23.5910   19.0790  -58.8620 N.am   11  THR11      -0.1938
     14  CA       -24.0870   19.3380  -60.2030 C.3    11  THR11       0.2028
     15  C        -24.0380   18.1000  -61.1010 C.2    11  THR11       0.2643
     16  O        -24.9370   17.8730  -61.9000 O.2    11  THR11      -0.2714
     17  CB       -23.2550   20.4380  -60.8840 C.3    11  THR11       0.1808
     18  OG1      -23.3910   21.6610  -60.1530 O.3    11  THR11      -0.2208
     19  CG2      -23.7310   20.6570  -62.3140 C.3    11  THR11       0.0379
     20  N        -22.9820   17.3090  -60.9710 N.am   12  THR12      -0.1936
     21  CA       -22.8280   16.1220  -61.7860 C.3    12  THR12       0.2028
     22  C        -22.9920   14.8580  -60.9550 C.2    12  THR12       0.2642
     23  O        -23.6320   13.8980  -61.3930 O.2    12  THR12      -0.2714
     24  CB       -21.4400   16.1120  -62.4580 C.3    12  THR12       0.1808
     25  OG1      -21.2270   17.3740  -63.0940 O.3    12  THR12      -0.2208
     26  CG2      -21.3490   15.0100  -63.5020 C.3    12  THR12       0.0379
     27  N        -22.4210   14.8740  -59.7530 N.am   13  ASN13      -0.1971
     28  CA       -22.4760   13.7300  -58.8540 C.3    13  ASN13       0.1688
     29  C        -22.8400   14.1140  -57.4360 C.2    13  ASN13       0.2292
     30  O        -22.6720   15.2560  -57.0080 O.2    13  ASN13      -0.2864
     31  CB       -21.1250   12.9990  -58.8050 C.3    13  ASN13       0.1181
     32  CG       -20.7900   12.2820  -60.1010 C.2    13  ASN13       0.2629
     33  OD1      -21.5920   11.5010  -60.6150 O.2    13  ASN13      -0.2716
     34  ND2      -19.5950   12.5290  -60.6270 N.am   13  ASN13      -0.0877
     35  N        -20.0340    7.3690  -55.5010 N.3    35  THR35      -0.1218
     36  CA       -20.6640    8.6060  -55.9540 C.3    35  THR35       0.1862
     37  C        -21.7480    8.1950  -56.9540 C.2    35  THR35       0.2287
     38  O        -21.5830    7.2240  -57.6910 O.2    35  THR35      -0.2866
     39  CB       -19.6600    9.5430  -56.6540 C.3    35  THR35       0.1770
     40  OG1      -19.1760    8.9120  -57.8440 O.3    35  THR35      -0.2211
     41  CG2      -18.4940    9.8770  -55.7260 C.3    35  THR35       0.0375
     42  N        -11.5280   23.8720  -57.1000 N.3   167  ASP167     -0.1239
     43  CA       -12.5980   22.9060  -57.3200 C.3   167  ASP167      0.1674
     44  C        -13.0520   22.7880  -58.7680 C.2   167  ASP167      0.2266
     45  O        -13.7750   23.6490  -59.2760 O.2   167  ASP167     -0.2867
     46  CB       -13.8040   23.3090  -56.4530 C.3   167  ASP167      0.1410
     47  CG       -14.8780   22.2260  -56.3700 C.2   167  ASP167      0.3668
     48  OD1      -15.1110   21.4910  -57.3650 O.co2 167  ASP167     -0.2456
     49  OD2      -15.5070   22.1320  -55.2930 O.co2 167  ASP167     -0.2456
     50  N        -15.1840   20.3460  -61.0340 N.3   169  GLY169     -0.1210
     51  CA       -16.0670   19.1960  -61.0860 C.3   169  GLY169      0.1956
     52  C        -16.4090   18.7320  -62.4870 C.2   169  GLY169      0.2612
     53  O        -15.5720   18.8060  -63.4020 O.2   169  GLY169     -0.2717
     54  N        -17.6390   18.2430  -62.6500 N.am  170  GLY170     -0.1942
     55  CA       -18.0980   17.7590  -63.9370 C.3   170  GLY170      0.2014
     56  C        -18.6260   18.8710  -64.8080 C.2   170  GLY170      0.2639
     57  O        -18.5380   18.7980  -66.0350 O.2   170  GLY170     -0.2714
     58  N        -19.1750   19.9070  -64.1770 N.am  171  GLY171     -0.1939
     59  CA       -19.7020   21.0350  -64.9260 C.3   171  GLY171      0.2014
     60  C        -19.2330   22.4290  -64.5170 C.2   171  GLY171      0.2639
     61  O        -19.3410   23.3620  -65.3130 O.2   171  GLY171     -0.2714
     62  N        -18.6940   22.5850  -63.3070 N.am  172  THR172     -0.1950
     63  CA       -18.2700   23.9090  -62.8530 C.3   172  THR172      0.1897
     64  C        -16.8800   23.9890  -62.2410 C.2   172  THR172      0.2313
     65  O        -16.3250   22.9990  -61.7500 O.2   172  THR172     -0.2863
     66  CB       -19.2340   24.4810  -61.7900 C.3   172  THR172      0.1794
     67  OG1      -19.0320   23.7820  -60.5570 O.3   172  THR172     -0.2208
     68  CG2      -20.6970   24.3180  -62.2210 C.3   172  THR172      0.0378
     69  N        -15.3140   18.6710  -66.1070 N.3   198  GLY198     -0.1210
     70  CA       -15.0300   17.4110  -66.7710 C.3   198  GLY198      0.1956
     71  C        -15.8760   17.1320  -68.0070 C.2   198  GLY198      0.2611
     72  O        -15.4050   16.4720  -68.9260 O.2   198  GLY198     -0.2717
     73  N        -17.1220   17.6050  -68.0300 N.am  199  ASP199     -0.1973
     74  CA       -17.9890   17.3990  -69.1950 C.3   199  ASP199      0.1709
     75  C        -17.3360   17.9880  -70.4480 C.2   199  ASP199      0.2293
     76  O        -17.4140   17.4180  -71.5340 O.2   199  ASP199     -0.2864
     77  CB       -19.3440   18.0950  -69.0090 C.3   199  ASP199      0.1436
     78  CG       -20.2630   17.3710  -68.0370 C.2   199  ASP199      0.3671
     79  OD1      -21.2580   18.0030  -67.6140 O.co2 199  ASP199     -0.2456
     80  OD2      -20.0010   16.1890  -67.7100 O.co2 199  ASP199     -0.2456
     81  N        -14.4230   15.8010  -71.7680 N.3   202  ASP202     -0.1295
     82  CA       -15.2710   14.9150  -72.5120 C.3   202  ASP202      0.1359
     83  C        -15.6300   15.3510  -73.9250 C.3   202  ASP202      0.2015
     84  O        -15.3100   14.5270  -74.8350 O.3   202  ASP202     -0.2188
     85  CB       -16.4920   14.4260  -71.7930 C.3   202  ASP202      0.1357
     86  CG       -16.3680   13.5080  -70.6330 C.2   202  ASP202      0.3664
     87  OD1      -15.3160   13.1760  -70.0730 O.co2 202  ASP202     -0.2456
     88  OD2      -17.4690   13.0680  -70.1550 O.co2 202  ASP202     -0.2456
     89  N        -15.6700    9.5900  -71.8160 N.3   236  GLU236     -0.1245
     90  CA       -15.4370    9.7890  -70.3890 C.3   236  GLU236      0.1567
     91  C        -14.5610    8.6680  -69.8300 C.2   236  GLU236      0.2260
     92  O        -13.6170    8.9210  -69.0920 O.2   236  GLU236     -0.2867
     93  CB       -16.7590    9.8500  -69.6090 C.3   236  GLU236      0.0388
     94  CG       -16.5520   10.1080  -68.1110 C.3   236  GLU236      0.1160
     95  CD       -17.8500   10.2380  -67.3170 C.2   236  GLU236      0.3649
     96  OE1      -17.7760   10.5730  -66.1140 O.co2 236  GLU236     -0.2457
     97  OE2      -18.9370   10.0040  -67.8880 O.co2 236  GLU236     -0.2457
     98  N        -10.9810    9.2880  -70.8650 N.3   239  LYS239     -0.1231
     99  CA       -10.3870   10.4250  -70.1690 C.3   239  LYS239      0.1693
    100  C         -9.8640    9.9910  -68.8040 C.2   239  LYS239      0.2591
    101  O         -8.7480   10.3260  -68.4140 O.2   239  LYS239     -0.2718
    102  CB       -11.4210   11.5290  -69.9640 C.3   239  LYS239      0.0285
    103  CG       -10.9590   12.6100  -69.0100 C.3   239  LYS239      0.0035
    104  CD       -12.0530   13.6220  -68.7260 C.3   239  LYS239      0.0206
    105  CE       -13.2030   13.0140  -67.9320 C.3   239  LYS239      0.1093
    106  NZ       -14.3220   13.9980  -67.7720 N.3   239  LYS239     -0.1314
    107  N        -10.6860    9.2460  -68.0790 N.am  240  LYS240     -0.1980
    108  CA       -10.3110    8.7710  -66.7590 C.3   240  LYS240      0.1596
    109  C         -9.0920    7.8710  -66.7990 C.2   240  LYS240      0.2287
    110  O         -8.1550    8.0590  -66.0290 O.2   240  LYS240     -0.2864
    111  CB       -11.4740    8.0200  -66.1250 C.3   240  LYS240      0.0298
    112  CG       -12.7310    8.8510  -65.9920 C.3   240  LYS240      0.0038
    113  CD       -13.7960    8.0800  -65.2330 C.3   240  LYS240      0.0206
    114  CE       -15.0170    8.9280  -65.0060 C.3   240  LYS240      0.1093
    115  NZ       -16.0210    8.2080  -64.1860 N.3   240  LYS240     -0.1314
    116  N         -5.6700    9.2900  -66.8460 N.3   243  SER243     -0.1217
    117  CA        -5.1850    9.9740  -65.6490 C.3   243  SER243      0.1889
    118  C         -4.1390    9.1260  -64.9360 C.2   243  SER243      0.2288
    119  O         -3.3820    9.6310  -64.1080 O.2   243  SER243     -0.2866
    120  CB        -6.3370   10.2640  -64.6780 C.3   243  SER243      0.2089
    121  OG        -7.1080   11.3600  -65.1300 O.3   243  SER243     -0.2183
    122  N        -12.9030   17.8310  -56.5410 N.3   310  GLY310     -0.1210
    123  CA       -13.4740   17.5360  -57.8410 C.3   310  GLY310      0.1956
    124  C        -12.7560   16.4170  -58.5650 C.2   310  GLY310      0.2612
    125  O        -11.5240   16.3380  -58.5560 O.2   310  GLY310     -0.2717
    126  N        -13.5310   15.5500  -59.2000 N.am  311  GLY311     -0.1942
    127  CA       -12.9520   14.4440  -59.9320 C.3   311  GLY311      0.2014
    128  C        -12.0190   14.8320  -61.0700 C.2   311  GLY311      0.2639
    129  O        -11.0790   14.0970  -61.3640 O.2   311  GLY311     -0.2714
    130  N        -12.2700   15.9760  -61.7070 N.am  312  SER312     -0.1949
    131  CA       -11.4480   16.4330  -62.8250 C.3   312  SER312      0.1924
    132  C        -10.0860   16.9080  -62.3430 C.2   312  SER312      0.2314
    133  O         -9.1780   17.1720  -63.1290 O.2   312  SER312     -0.2863
    134  CB       -12.1580   17.5660  -63.5630 C.3   312  SER312      0.2116
    135  OG       -13.4300   17.1510  -64.0400 O.3   312  SER312     -0.2180
    136  N         -8.1390   15.1240  -60.8460 N.3   314  ARG314     -0.1231
    137  CA        -7.2790   13.9520  -60.9960 C.3   314  ARG314      0.1694
    138  C         -6.4840   13.9900  -62.3130 C.2   314  ARG314      0.2591
    139  O         -5.5360   13.2270  -62.4950 O.2   314  ARG314     -0.2718
    140  CB        -8.1250   12.6760  -60.9590 C.3   314  ARG314      0.0321
    141  CG        -8.8120   12.3810  -59.6300 C.3   314  ARG314      0.0489
    142  CD        -9.7440   11.1870  -59.7780 C.3   314  ARG314      0.2205
    143  NE       -10.4050   10.8240  -58.5270 N.pl3 314  ARG314     -0.0865
    144  CZ        -9.8430   10.1020  -57.5630 C.cat 314  ARG314      0.5346
    145  NH1      -10.5220    9.8270  -56.4570 N.pl3 314  ARG314      0.1354
    146  NH2       -8.6070    9.6410  -57.7110 N.pl3 314  ARG314      0.1354
    147  N         -6.8840   14.8710  -63.2280 N.am  315  ILE315     -0.1980
    148  CA        -6.2130   15.0170  -64.5130 C.3   315  ILE315      0.1595
    149  C         -4.7810   15.5310  -64.3010 C.2   315  ILE315      0.2287
    150  O         -4.5690   16.6010  -63.7290 O.2   315  ILE315     -0.2864
    151  CB        -6.9630   16.0240  -65.4320 C.3   315  ILE315      0.0276
    152  CG1       -8.3860   15.5300  -65.7190 C.3   315  ILE315      0.0022
    153  CG2       -6.2050   16.2130  -66.7390 C.3   315  ILE315      0.0022
    154  CD1       -9.3330   16.5860  -66.2870 C.3   315  ILE315      0.0001
    155  N        -10.5900   13.4060  -53.8640 N.3   336  PRO336     -0.2102
    156  CA       -11.2450   14.6070  -54.3870 C.3   336  PRO336      0.1504
    157  C        -12.7020   14.4420  -54.8370 C.2   336  PRO336      0.2575
    158  O        -13.4120   15.4340  -55.0160 O.2   336  PRO336     -0.2718
    159  CB       -10.3090   15.0400  -55.5180 C.3   336  PRO336      0.0282
    160  CG        -9.7000   13.7480  -55.9760 C.3   336  PRO336      0.0208
    161  CD        -9.4040   13.0650  -54.6720 C.3   336  PRO336      0.0893
    162  N        -13.1450   13.2000  -55.0200 N.am  337  ASP337     -0.1974
    163  CA       -14.5290   12.9470  -55.4260 C.3   337  ASP337      0.1708
    164  C        -15.4080   12.8500  -54.1830 C.2   337  ASP337      0.2293
    165  O        -16.6210   12.9900  -54.2620 O.2   337  ASP337     -0.2864
    166  CB       -14.6830   11.6110  -56.1760 C.3   337  ASP337      0.1436
    167  CG       -13.5980   11.3670  -57.2170 C.2   337  ASP337      0.3671
    168  OD1      -13.3990   12.2180  -58.1170 O.co2 337  ASP337     -0.2456
    169  OD2      -12.9570   10.2970  -57.1390 O.co2 337  ASP337     -0.2456
@<TRIPOS>BOND
     1    84    83    1
     2    83    82    1
     3    82    85    1
     4    82    81    1
     5    89    90    1
     6    85    86    1
     7    76    75    2
     8    98    99    1
     9    86    88   ar
    10    86    87   ar
    11    75    74    1
    12    90    91    1
    13    90    93    1
    14    99   102    1
    15    99   100    1
    16   102   103    1
    17    91    92    2
    18    93    94    1
    19    74    77    1
    20    74    73    1
    21   103   104    1
    22    77    78    1
    23    72    71    2
    24   100   101    2
    25   100   107   am
    26   104   105    1
    27    94    95    1
    28   107   108    1
    29    78    80   ar
    30    78    79   ar
    31    73    71   am
    32    71    70    1
    33   105   106    1
    34    97    95   ar
    35    95    96   ar
    36   116   117    1
    37   109   108    1
    38   109   110    2
    39    70    69    1
    40   108   111    1
    41   153   151    1
    42   154   152    1
    43   111   112    1
    44    57    56    2
    45   112   113    1
    46   152   151    1
    47   117   118    1
    48   117   120    1
    49   151   148    1
    50    61    60    2
    51   113   114    1
    52   121   120    1
    53   114   115    1
    54   118   119    2
    55    59    60    1
    56    59    58    1
    57    56    58   am
    58    56    55    1
    59    60    62   am
    60   148   149    1
    61   148   147    1
    62   149   150    2
    63   135   134    1
    64    55    54    1
    65   134   131    1
    66    26    24    1
    67    53    52    2
    68    62    63    1
    69   147   138   am
    70   133   132    2
    71    25    24    1
    72    63    64    1
    73    63    66    1
    74   131   132    1
    75   131   130    1
    76    54    52   am
    77   139   138    2
    78    52    51    1
    79    24    21    1
    80    19    17    1
    81   138   137    1
    82    64    65    2
    83    68    66    1
    84    16    15    2
    85    66    67    1
    86    21    20    1
    87    21    22    1
    88   130   128   am
    89    23    22    2
    90   129   128    2
    91    15    20   am
    92    15    14    1
    93    51    50    1
    94   128   127    1
    95   137   140    1
    96   137   136    1
    97   140   141    1
    98    22    27   am
    99    17    14    1
   100    17    18    1
   101    34    32   am
   102    33    32    2
   103    14    13    1
   104    32    31    1
   105   127   126    1
   106   142   141    1
   107   142   143    1
   108    27    28    1
   109    45    44    2
   110   126   124   am
   111    13    11   am
   112    28    31    1
   113    28    29    1
   114    44    43    1
   115   124   125    2
   116   124   123    1
   117   143   144    2
   118    12    11    2
   119   168   167   ar
   120    11    10    1
   121    40    39    1
   122   123   122    1
   123   146   144    1
   124    38    37    2
   125   144   145    1
   126    29    30    2
   127    48    47   ar
   128    43    42    1
   129    43    46    1
   130   167   169   ar
   131   167   166    1
   132    37    36    1
   133    10     9    1
   134    39    36    1
   135    39    41    1
   136    46    47    1
   137    47    49   ar
   138   166   163    1
   139   160   159    1
   140   160   161    1
   141    36    35    1
   142   159   156    1
   143   163   162    1
   144   163   164    1
   145   162   157   am
   146   158   157    2
   147   157   156    1
   148   161   155    1
   149   156   155    1
   150   165   164    2
   151     8     6   ar
   152     7     6   ar
   153     4     3    2
   154     6     5    1
   155     3     2    1
   156     5     2    1
   157     2     1    1
