@<TRIPOS>MOLECULE
tmp/2v83B00.pdb
 197 198 0 0 0
SMALL
GASTEIGER

@<TRIPOS>ATOM
      1  N         14.5420   35.4080   35.4880 N.3     5  PHE5       -0.1227
      2  CA        15.8280   35.0890   36.0960 C.3     5  PHE5        0.1736
      3  C         15.7020   34.3610   37.4270 C.2     5  PHE5        0.2596
      4  O         16.7010   33.9320   37.9950 O.2     5  PHE5       -0.2718
      5  CB        16.6910   36.3410   36.2480 C.3     5  PHE5        0.0547
      6  CG        17.1720   36.8830   34.9410 C.ar    5  PHE5       -0.0202
      7  CD1       16.4020   37.7880   34.2200 C.ar    5  PHE5       -0.0042
      8  CD2       18.3510   36.4150   34.3810 C.ar    5  PHE5       -0.0042
      9  CE1       16.7990   38.2120   32.9560 C.ar    5  PHE5       -0.0003
     10  CE2       18.7600   36.8300   33.1170 C.ar    5  PHE5       -0.0003
     11  CZ        17.9850   37.7280   32.4020 C.ar    5  PHE5       -0.0000
     12  N         14.4760   34.2360   37.9260 N.am    6  GLY6       -0.1942
     13  CA        14.2430   33.4890   39.1520 C.3     6  GLY6        0.2014
     14  C         14.2990   34.1170   40.5330 C.2     6  GLY6        0.2638
     15  O         13.8230   33.4990   41.4850 O.2     6  GLY6       -0.2714
     16  N         14.8610   35.3130   40.6730 N.am    7  TYR7       -0.1973
     17  CA        14.9420   35.9330   41.9930 C.3     7  TYR7        0.1639
     18  C         13.7070   36.7350   42.3910 C.2     7  TYR7        0.2290
     19  O         13.0310   36.4360   43.3830 O.2     7  TYR7       -0.2864
     20  CB        16.1760   36.8370   42.0870 C.3     7  TYR7        0.0560
     21  CG        17.4750   36.0720   42.1070 C.ar    7  TYR7       -0.0198
     22  CD1       18.1820   35.8060   40.9290 C.ar    7  TYR7       -0.0009
     23  CD2       17.9650   35.5550   43.3030 C.ar    7  TYR7       -0.0009
     24  CE1       19.3440   35.0350   40.9490 C.ar    7  TYR7        0.0417
     25  CE2       19.1180   34.7830   43.3360 C.ar    7  TYR7        0.0417
     26  CZ        19.8000   34.5230   42.1610 C.ar    7  TYR7        0.1957
     27  OH        20.9120   33.7210   42.2210 O.3     7  TYR7       -0.2866
     28  N         24.3310   37.3750   55.6790 N.3    27  SER27      -0.1202
     29  CA        25.6770   37.9120   55.4760 C.3    27  SER27       0.2020
     30  C         26.2450   37.6300   54.0890 C.2    27  SER27       0.2619
     31  O         27.2210   38.2530   53.6800 O.2    27  SER27      -0.2717
     32  CB        26.6460   37.3530   56.5240 C.3    27  SER27       0.2103
     33  OG        27.0850   36.0530   56.1760 O.3    27  SER27      -0.2182
     34  N         25.6270   36.7050   53.3670 N.am   28  THR28      -0.1938
     35  CA        26.1000   36.3380   52.0370 C.3    28  THR28       0.2028
     36  C         25.4310   37.0600   50.8680 C.2    28  THR28       0.2642
     37  O         25.8700   36.9270   49.7300 O.2    28  THR28      -0.2714
     38  CB        25.9370   34.8370   51.8120 C.3    28  THR28       0.1808
     39  OG1       24.5500   34.4850   51.9180 O.3    28  THR28      -0.2208
     40  CG2       26.7330   34.0650   52.8510 C.3    28  THR28       0.0379
     41  N         24.3850   37.8320   51.1440 N.am   29  GLU29      -0.1963
     42  CA        23.6740   38.5390   50.0840 C.3    29  GLU29       0.1733
     43  C         24.3360   39.8520   49.6660 C.2    29  GLU29       0.2616
     44  O         25.0100   40.5090   50.4600 O.2    29  GLU29      -0.2715
     45  CB        22.2300   38.8080   50.5190 C.3    29  GLU29       0.0429
     46  CG        21.4150   37.5460   50.7560 C.3    29  GLU29       0.1163
     47  CD        20.0980   37.8130   51.4700 C.2    29  GLU29       0.3649
     48  OE1       20.1000   38.5710   52.4630 O.co2  29  GLU29      -0.2457
     49  OE2       19.0620   37.2520   51.0510 O.co2  29  GLU29      -0.2457
     50  N         24.1480   40.2180   48.4050 N.am   30  LEU30      -0.1963
     51  CA        24.6880   41.4600   47.8730 C.3    30  LEU30       0.1728
     52  C         23.5200   42.2370   47.2890 C.2    30  LEU30       0.2616
     53  O         23.0410   43.1820   47.9040 O.2    30  LEU30      -0.2715
     54  CB        25.7490   41.1740   46.8100 C.3    30  LEU30       0.0311
     55  CG        27.0480   40.6500   47.4270 C.3    30  LEU30       0.0022
     56  CD1       27.9700   40.1010   46.3500 C.3    30  LEU30       0.0001
     57  CD2       27.7190   41.7820   48.2060 C.3    30  LEU30       0.0001
     58  N         23.0470   41.8450   46.1100 N.am   31  ASN31      -0.1958
     59  CA        21.9070   42.5330   45.5050 C.3    31  ASN31       0.1819
     60  C         20.7920   41.5470   45.2040 C.2    31  ASN31       0.2621
     61  O         19.7810   41.8990   44.6040 O.2    31  ASN31      -0.2715
     62  CB        22.3160   43.2560   44.2180 C.3    31  ASN31       0.1195
     63  CG        22.7910   42.3100   43.1320 C.2    31  ASN31       0.2630
     64  OD1       23.0550   42.7340   42.0130 O.2    31  ASN31      -0.2716
     65  ND2       22.9100   41.0340   43.4550 N.am   31  ASN31      -0.0877
     66  N         20.9840   40.3040   45.6290 N.am   32  LYS32      -0.1964
     67  CA        19.9970   39.2600   45.3970 C.3    32  LYS32       0.1713
     68  C         19.7140   38.4410   46.6360 C.2    32  LYS32       0.2458
     69  O         20.6160   38.0840   47.3800 O.2    32  LYS32      -0.2730
     70  CB        20.4650   38.3300   44.2930 C.3    32  LYS32       0.0311
     71  CG        20.2700   38.8880   42.9180 C.3    32  LYS32       0.0038
     72  CD        20.9350   37.9870   41.9040 C.3    32  LYS32       0.0206
     73  CE        20.7250   38.4890   40.4910 C.3    32  LYS32       0.1093
     74  NZ        21.8930   39.2480   39.9960 N.3    32  LYS32      -0.1314
     75  N         18.4390   38.1300   46.8670 N.am   33  PRO33      -0.2716
     76  CA        18.0360   37.3420   48.0330 C.3    33  PRO33       0.1536
     77  C         18.4690   35.8750   47.9350 C.2    33  PRO33       0.2598
     78  O         18.3460   35.2540   46.8790 O.2    33  PRO33      -0.2715
     79  CB        16.5180   37.5030   48.0440 C.3    33  PRO33       0.0310
     80  CG        16.1830   37.6270   46.5780 C.3    33  PRO33       0.0237
     81  CD        17.2730   38.5490   46.0680 C.3    33  PRO33       0.0939
     82  N         18.9810   35.3290   49.0350 N.am   34  ALA34      -0.1964
     83  CA        19.4040   33.9370   49.0530 C.3    34  ALA34       0.1728
     84  C         18.1770   33.0570   48.8380 C.2    34  ALA34       0.2616
     85  O         17.0950   33.3440   49.3560 O.2    34  ALA34      -0.2715
     86  CB        20.0590   33.6000   50.3850 C.3    34  ALA34       0.0334
     87  N         18.3430   31.9940   48.0640 N.am   35  MET35      -0.1963
     88  CA        17.2380   31.0840   47.7880 C.3    35  MET35       0.1736
     89  C         17.6820   29.6380   47.9420 C.2    35  MET35       0.2616
     90  O         18.8690   29.3200   47.8190 O.2    35  MET35      -0.2715
     91  CB        16.6910   31.3210   46.3690 C.3    35  MET35       0.0427
     92  CG        16.1050   32.7290   46.1430 C.3    35  MET35       0.0599
     93  SD        15.4740   33.0120   44.4530 S.3    35  MET35      -0.1393
     94  CE        13.7310   32.5140   44.6370 C.3    35  MET35       0.0692
     95  N         16.7180   28.7660   48.2180 N.am   36  ILE36      -0.1963
     96  CA        16.9870   27.3460   48.3820 C.3    36  ILE36       0.1727
     97  C         15.9720   26.5750   47.5320 C.2    36  ILE36       0.2616
     98  O         14.8370   27.0170   47.3450 O.2    36  ILE36      -0.2715
     99  CB        16.8980   26.9330   49.8810 C.3    36  ILE36       0.0290
    100  CG1       17.1580   25.4390   50.0380 C.3    36  ILE36       0.0022
    101  CG2       15.5330   27.2780   50.4560 C.3    36  ILE36       0.0023
    102  CD1       17.2600   25.0060   51.4900 C.3    36  ILE36       0.0001
    103  N         16.3900   25.4250   47.0150 N.am   37  TYR37      -0.1974
    104  CA        15.5370   24.6150   46.1570 C.3    37  TYR37       0.1639
    105  C         14.6870   23.5590   46.8760 C.2    37  TYR37       0.2290
    106  O         15.1890   22.7660   47.6850 O.2    37  TYR37      -0.2864
    107  CB        16.4110   23.9390   45.1000 C.3    37  TYR37       0.0560
    108  CG        15.6580   23.1200   44.0790 C.ar   37  TYR37      -0.0198
    109  CD1       14.8960   23.7340   43.0850 C.ar   37  TYR37      -0.0009
    110  CD2       15.7390   21.7240   44.0830 C.ar   37  TYR37      -0.0009
    111  CE1       14.2390   22.9780   42.1170 C.ar   37  TYR37       0.0417
    112  CE2       15.0860   20.9590   43.1200 C.ar   37  TYR37       0.0417
    113  CZ        14.3400   21.5910   42.1410 C.ar   37  TYR37       0.1957
    114  OH        13.7150   20.8340   41.1780 O.3    37  TYR37      -0.2866
    115  N         11.8950   27.1770   43.5180 N.3    45  TRP45      -0.1241
    116  CA        12.7800   27.8950   44.4110 C.3    45  TRP45       0.1605
    117  C         11.9890   28.8560   45.2780 C.2    45  TRP45       0.2264
    118  O         10.9910   29.4270   44.8370 O.2    45  TRP45      -0.2867
    119  CB        13.8290   28.6810   43.6210 C.3    45  TRP45       0.0550
    120  CG        14.8180   27.8260   42.8930 C.ar   45  TRP45       0.0003
    121  CD1       14.6450   27.2130   41.6860 C.ar   45  TRP45       0.0946
    122  CD2       16.1490   27.5100   43.3180 C.ar   45  TRP45       0.0152
    123  NE1       15.7890   26.5370   41.3280 N.ar   45  TRP45      -0.2442
    124  CE2       16.7280   26.7010   42.3100 C.ar   45  TRP45       0.0810
    125  CE3       16.9110   27.8340   44.4520 C.ar   45  TRP45       0.0012
    126  CZ2       18.0380   26.2110   42.3990 C.ar   45  TRP45       0.0191
    127  CZ3       18.2140   27.3510   44.5430 C.ar   45  TRP45       0.0001
    128  CH2       18.7640   26.5450   43.5170 C.ar   45  TRP45       0.0015
    129  N         20.5190   27.8450   57.0300 N.3    58  LEU58      -0.1231
    130  CA        20.6080   27.9910   55.5830 C.3    58  LEU58       0.1693
    131  C         21.9800   27.5410   55.1010 C.2    58  LEU58       0.2591
    132  O         22.0840   26.7430   54.1750 O.2    58  LEU58      -0.2718
    133  CB        20.3920   29.4510   55.1920 C.3    58  LEU58       0.0284
    134  CG        19.9590   29.8260   53.7700 C.3    58  LEU58       0.0019
    135  CD1       20.2590   31.2920   53.5780 C.3    58  LEU58       0.0001
    136  CD2       20.6780   29.0230   52.7220 C.3    58  LEU58       0.0001
    137  N         23.0320   28.0600   55.7260 N.am   59  ILE59      -0.1980
    138  CA        24.3880   27.6880   55.3440 C.3    59  ILE59       0.1595
    139  C         24.6120   26.2150   55.5920 C.2    59  ILE59       0.2287
    140  O         25.3250   25.5570   54.8410 O.2    59  ILE59      -0.2864
    141  CB        25.4510   28.4840   56.1380 C.3    59  ILE59       0.0276
    142  CG1       25.3420   29.9600   55.7910 C.3    59  ILE59       0.0022
    143  CG2       26.8590   27.9770   55.8030 C.3    59  ILE59       0.0022
    144  CD1       25.4580   30.2280   54.3080 C.3    59  ILE59       0.0001
    145  N         22.3920   23.8810   55.3600 N.3    61  LEU61      -0.1231
    146  CA        21.6930   23.1600   54.3110 C.3    61  LEU61       0.1693
    147  C         22.4690   23.1700   52.9970 C.2    61  LEU61       0.2592
    148  O         22.4830   22.1740   52.2700 O.2    61  LEU61      -0.2718
    149  CB        20.3110   23.7690   54.0970 C.3    61  LEU61       0.0284
    150  CG        19.2810   23.4780   55.1840 C.3    61  LEU61       0.0019
    151  CD1       18.1730   24.5170   55.1510 C.3    61  LEU61       0.0001
    152  CD2       18.7290   22.0630   54.9870 C.3    61  LEU61       0.0001
    153  N         23.1270   24.2890   52.7080 N.am   62  SER62      -0.1952
    154  CA        23.8810   24.4340   51.4670 C.3    62  SER62       0.1924
    155  C         25.1830   23.6500   51.4110 C.2    62  SER62       0.2314
    156  O         25.6430   23.2960   50.3270 O.2    62  SER62      -0.2863
    157  CB        24.1840   25.9070   51.2080 C.3    62  SER62       0.2116
    158  OG        25.1230   26.3950   52.1460 O.3    62  SER62      -0.2180
    159  N         25.5760   20.7290   52.8930 N.3    64  GLY64      -0.1210
    160  CA        25.2280   19.3190   52.8620 C.3    64  GLY64       0.1956
    161  C         24.6490   18.9370   51.5110 C.2    64  GLY64       0.2613
    162  O         24.3990   19.8010   50.6720 O.2    64  GLY64      -0.2717
    163  N         24.4320   17.6460   51.2870 N.am   65  SER65      -0.1938
    164  CA        23.8850   17.2080   50.0150 C.3    65  SER65       0.2055
    165  C         22.4630   16.6710   50.1560 C.2    65  SER65       0.2643
    166  O         22.0610   15.7760   49.4190 O.2    65  SER65      -0.2714
    167  CB        24.7790   16.1350   49.3860 C.3    65  SER65       0.2130
    168  OG        24.4690   14.8470   49.8900 O.3    65  SER65      -0.2179
    169  N         21.7040   17.2140   51.1030 N.am   66  ASN66      -0.1957
    170  CA        20.3270   16.7780   51.3080 C.3    66  ASN66       0.1819
    171  C         19.3520   17.6000   50.5190 C.2    66  ASN66       0.2621
    172  O         19.6080   18.7530   50.1950 O.2    66  ASN66      -0.2715
    173  CB        19.8900   16.9140   52.7580 C.3    66  ASN66       0.1195
    174  CG        20.6090   15.9860   53.6680 C.2    66  ASN66       0.2630
    175  OD1       20.9110   14.8500   53.3020 O.2    66  ASN66      -0.2716
    176  ND2       20.8780   16.4500   54.8830 N.am   66  ASN66      -0.0877
    177  N         18.2110   16.9950   50.2430 N.am   67  LYS67      -0.1963
    178  CA        17.1590   17.6860   49.5470 C.3    67  LYS67       0.1728
    179  C         16.4280   18.4650   50.6140 C.2    67  LYS67       0.2616
    180  O         16.5670   18.2060   51.8060 O.2    67  LYS67      -0.2715
    181  CB        16.2320   16.6880   48.8720 C.3    67  LYS67       0.0311
    182  CG        16.7830   16.2000   47.5590 C.3    67  LYS67       0.0038
    183  CD        16.0360   14.9890   47.0500 C.3    67  LYS67       0.0206
    184  CE        16.2860   14.8120   45.5550 C.3    67  LYS67       0.1093
    185  NZ        15.6810   13.5680   44.9950 N.3    67  LYS67      -0.1314
    186  N         15.6490   19.4300   50.1830 N.am   68  TYR68      -0.1974
    187  CA        14.9240   20.2480   51.1120 C.3    68  TYR68       0.1639
    188  C         13.5090   20.3720   50.5860 C.2    68  TYR68       0.2290
    189  O         13.2800   20.3810   49.3720 O.2    68  TYR68      -0.2864
    190  CB        15.6240   21.6100   51.2150 C.3    68  TYR68       0.0560
    191  CG        14.8190   22.7090   51.8570 C.ar   68  TYR68      -0.0198
    192  CD1       14.0140   23.5460   51.0880 C.ar   68  TYR68      -0.0009
    193  CD2       14.8260   22.8890   53.2410 C.ar   68  TYR68      -0.0009
    194  CE1       13.2250   24.5330   51.6850 C.ar   68  TYR68       0.0417
    195  CE2       14.0430   23.8690   53.8430 C.ar   68  TYR68       0.0417
    196  CZ        13.2440   24.6820   53.0640 C.ar   68  TYR68       0.1957
    197  OH        12.4300   25.6090   53.6600 O.3    68  TYR68      -0.2866
@<TRIPOS>BOND
     1    11     9   ar
     2    11    10   ar
     3     9     7   ar
     4    10     8   ar
     5     7     6   ar
     6     8     6   ar
     7     6     5    1
     8     1     2    1
     9     2     5    1
    10     2     3    1
    11     3    12   am
    12     3     4    2
    13    12    13    1
    14    13    14    1
    15    74    73    1
    16    73    72    1
    17    14    16   am
    18    14    15    2
    19    16    17    1
    20    22    24   ar
    21    22    21   ar
    22    24    26   ar
    23   114   113    1
    24   123   121   ar
    25   123   124   ar
    26   121   120   ar
    27    72    71    1
    28    17    20    1
    29    17    18    1
    30    64    63    2
    31    20    21    1
    32    21    23   ar
    33   111   113   ar
    34   111   109   ar
    35   113   112   ar
    36    26    27    1
    37    26    25   ar
    38   124   126   ar
    39   124   122   ar
    40    18    19    2
    41   126   128   ar
    42   120   122   ar
    43   120   119    1
    44    71    70    1
    45   109   108   ar
    46   112   110   ar
    47    63    65   am
    48    63    62    1
    49    23    25   ar
    50   122   125   ar
    51   128   127   ar
    52   115   116    1
    53   119   116    1
    54   108   110   ar
    55   108   107    1
    56    62    59    1
    57    70    67    1
    58   116   117    1
    59   125   127   ar
    60    93    94    1
    61    93    92    1
    62    61    60    2
    63   118   117    2
    64   185   184    1
    65   107   104    1
    66    60    59    1
    67    60    66   am
    68    67    66    1
    69    67    68    1
    70    59    58    1
    71   184   183    1
    72    81    80    1
    73    81    75    1
    74    58    52   am
    75    92    91    1
    76   104   105    1
    77   104   103    1
    78    56    55    1
    79    91    88    1
    80    80    79    1
    81    68    75   am
    82    68    69    2
    83    54    55    1
    84    54    51    1
    85    75    76    1
    86   105   106    2
    87    78    77    2
    88   103    97   am
    89   183   182    1
    90    52    51    1
    91    52    53    2
    92    98    97    2
    93    55    57    1
    94    97    96    1
    95   182   181    1
    96    88    89    1
    97    88    87    1
    98    90    89    2
    99    51    50    1
   100    77    76    1
   101    77    82   am
   102    89    95   am
   103    76    79    1
   104    87    84   am
   105    95    96    1
   106    96    99    1
   107    50    43   am
   108    84    83    1
   109    84    85    2
   110   181   178    1
   111    82    83    1
   112    83    86    1
   113   189   188    2
   114   167   168    1
   115   167   164    1
   116   166   165    2
   117   178   177    1
   118   178   179    1
   119    43    42    1
   120    43    44    2
   121    37    36    2
   122    99   100    1
   123    99   101    1
   124   164   165    1
   125   164   163    1
   126   100   102    1
   127    42    45    1
   128    42    41    1
   129   165   169   am
   130   186   179   am
   131   186   187    1
   132   172   171    2
   133   177   171   am
   134   156   155    2
   135    45    46    1
   136   171   170    1
   137   188   187    1
   138   179   180    2
   139   162   161    2
   140    46    47    1
   141    36    41   am
   142    36    35    1
   143    49    47   ar
   144   192   194   ar
   145   192   191   ar
   146   169   170    1
   147   187   190    1
   148   157   154    1
   149   157   158    1
   150   190   191    1
   151   163   161   am
   152   170   173    1
   153   155   154    1
   154   154   153    1
   155    47    48   ar
   156   161   160    1
   157   194   196   ar
   158    38    39    1
   159    38    35    1
   160    38    40    1
   161   191   193   ar
   162    35    34    1
   163   148   147    2
   164   153   147   am
   165   136   134    1
   166   173   174    1
   167   160   159    1
   168   147   146    1
   169   196   197    1
   170   196   195   ar
   171   193   195   ar
   172   175   174    2
   173    34    30   am
   174   135   134    1
   175   174   176   am
   176    31    30    2
   177   134   133    1
   178    30    29    1
   179   149   146    1
   180   149   150    1
   181   132   131    2
   182   144   142    1
   183   146   145    1
   184   140   139    2
   185   152   150    1
   186   131   130    1
   187   131   137   am
   188   151   150    1
   189   133   130    1
   190   138   139    1
   191   138   137    1
   192   138   141    1
   193    29    28    1
   194    29    32    1
   195   130   129    1
   196   142   141    1
   197   143   141    1
   198    33    32    1
