@<TRIPOS>MOLECULE
tmp/2v84A00.pdb
 125 118 0 0 0
SMALL
GASTEIGER

@<TRIPOS>ATOM
      1  N        -11.3980   16.2210   -7.6750 N.3     8  TRP8       -0.1241
      2  CA       -12.3450   17.1490   -8.2890 C.3     8  TRP8        0.1605
      3  C        -13.4010   16.3320   -9.0170 C.2     8  TRP8        0.2264
      4  O        -13.1050   15.2760   -9.5860 O.2     8  TRP8       -0.2867
      5  CB       -11.6300   18.0670   -9.3020 C.3     8  TRP8        0.0550
      6  CG       -10.5870   19.0040   -8.7140 C.ar    8  TRP8        0.0003
      7  CD1       -9.3100   18.6790   -8.3280 C.ar    8  TRP8        0.0946
      8  CD2      -10.7280   20.4170   -8.4780 C.ar    8  TRP8        0.0152
      9  NE1       -8.6560   19.7960   -7.8490 N.ar    8  TRP8       -0.2442
     10  CE2       -9.5020   20.8750   -7.9220 C.ar    8  TRP8        0.0810
     11  CE3      -11.7720   21.3430   -8.6710 C.ar    8  TRP8        0.0012
     12  CZ2       -9.2900   22.2190   -7.5700 C.ar    8  TRP8        0.0191
     13  CZ3      -11.5610   22.6780   -8.3150 C.ar    8  TRP8        0.0001
     14  CH2      -10.3210   23.1020   -7.7780 C.ar    8  TRP8        0.0015
     15  N        -12.8920   14.5820  -12.5300 N.3    11  TYR11      -0.1241
     16  CA       -11.4470   14.6640  -12.8810 C.3    11  TYR11       0.1605
     17  C        -10.7590   13.3070  -13.1080 C.2    11  TYR11       0.2264
     18  O         -9.9430   13.1520  -14.0300 O.2    11  TYR11      -0.2867
     19  CB       -10.7000   15.4800  -11.8280 C.3    11  TYR11       0.0534
     20  CG        -9.4240   16.1280  -12.3050 C.ar   11  TYR11      -0.0201
     21  CD1       -9.1840   16.3470  -13.6620 C.ar   11  TYR11      -0.0009
     22  CD2       -8.4650   16.5320  -11.3860 C.ar   11  TYR11      -0.0009
     23  CE1       -7.9950   16.9590  -14.0930 C.ar   11  TYR11       0.0417
     24  CE2       -7.2880   17.1290  -11.7880 C.ar   11  TYR11       0.0417
     25  CZ        -7.0490   17.3430  -13.1320 C.ar   11  TYR11       0.1957
     26  OH        -5.8940   17.9750  -13.5030 O.3    11  TYR11      -0.2866
     27  N         -9.6940   23.2350   -3.8830 N.3    36  ASN36      -0.1240
     28  CA        -8.6250   22.7840   -2.9790 C.3    36  ASN36       0.1653
     29  C         -8.7460   23.3000   -1.5550 C.2    36  ASN36       0.2266
     30  O         -8.1910   22.7190   -0.6420 O.2    36  ASN36      -0.2867
     31  CB        -7.2430   23.0850   -3.5520 C.3    36  ASN36       0.1155
     32  CG        -6.8140   22.0560   -4.5750 C.2    36  ASN36       0.2627
     33  OD1       -7.1500   20.8830   -4.4640 O.2    36  ASN36      -0.2716
     34  ND2       -6.0860   22.4890   -5.5770 N.am   36  ASN36      -0.0877
     35  N         -3.1960   20.9190   -6.0640 N.3    56  SER56      -0.1217
     36  CA        -2.4350   21.6870   -7.0510 C.3    56  SER56       0.1889
     37  C         -1.0820   21.9900   -6.4360 C.2    56  SER56       0.2288
     38  O         -0.8860   21.7570   -5.2500 O.2    56  SER56      -0.2866
     39  CB        -3.1590   22.9920   -7.3790 C.3    56  SER56       0.2089
     40  OG        -3.5090   23.6840   -6.1870 O.3    56  SER56      -0.2183
     41  N          0.6790   24.5760   -5.4880 N.3    58  ASP58      -0.1239
     42  CA         0.7150   25.4300   -4.3030 C.3    58  ASP58       0.1674
     43  C          0.2040   24.6990   -3.0600 C.2    58  ASP58       0.2266
     44  O          0.7840   24.8270   -1.9770 O.2    58  ASP58      -0.2867
     45  CB         0.0080   26.7880   -4.5300 C.3    58  ASP58       0.1410
     46  CG        -1.3770   26.6510   -5.1320 C.2    58  ASP58       0.3668
     47  OD1       -1.6110   25.7060   -5.9140 O.co2  58  ASP58      -0.2456
     48  OD2       -2.2360   27.5140   -4.8380 O.co2  58  ASP58      -0.2456
     49  N        -11.4620   33.0250   -9.2140 N.3   141  ASP141     -0.1239
     50  CA       -10.3080   32.4340   -8.5940 C.3   141  ASP141      0.1674
     51  C         -9.2290   33.4930   -8.4550 C.2   141  ASP141      0.2266
     52  O         -8.7870   34.0750   -9.4580 O.2   141  ASP141     -0.2867
     53  CB        -9.7640   31.2530   -9.4110 C.3   141  ASP141      0.1410
     54  CG        -8.6170   30.5470   -8.6940 C.2   141  ASP141      0.3668
     55  OD1       -8.8700   29.6590   -7.8420 O.co2 141  ASP141     -0.2456
     56  OD2       -7.4490   30.8990   -8.9300 O.co2 141  ASP141     -0.2456
     57  N         -5.6430   32.7620  -10.1940 N.3   144  GLU144     -0.1245
     58  CA        -5.8030   32.8850  -11.6590 C.3   144  GLU144      0.1567
     59  C         -5.9220   34.3230  -12.1260 C.2   144  GLU144      0.2260
     60  O         -5.2580   34.7250  -13.0880 O.2   144  GLU144     -0.2867
     61  CB        -7.0280   32.1080  -12.1800 C.3   144  GLU144      0.0388
     62  CG        -6.9100   30.5720  -12.1990 C.3   144  GLU144      0.1160
     63  CD        -5.7510   29.9890  -13.0130 C.2   144  GLU144      0.3649
     64  OE1       -5.0270   30.6820  -13.7550 O.co2 144  GLU144     -0.2457
     65  OE2       -5.5430   28.7820  -12.8800 O.co2 144  GLU144     -0.2457
     66  N        -11.3690   27.0630  -18.4990 N.3   203  PHE203     -0.1241
     67  CA       -10.7180   25.8680  -19.0040 C.3   203  PHE203      0.1605
     68  C        -11.3110   25.4010  -20.3130 C.2   203  PHE203      0.2264
     69  O        -12.5210   25.3330  -20.4910 O.2   203  PHE203     -0.2867
     70  CB       -10.7340   24.7450  -17.9720 C.3   203  PHE203      0.0534
     71  CG       -10.0990   25.1240  -16.6680 C.ar  203  PHE203     -0.0203
     72  CD1       -8.7540   25.4310  -16.5930 C.ar  203  PHE203     -0.0042
     73  CD2      -10.8550   25.1460  -15.5060 C.ar  203  PHE203     -0.0042
     74  CE1       -8.1580   25.7820  -15.3690 C.ar  203  PHE203     -0.0003
     75  CE2      -10.2820   25.4780  -14.2920 C.ar  203  PHE203     -0.0003
     76  CZ        -8.9400   25.8060  -14.2190 C.ar  203  PHE203     -0.0000
     77  N        -11.5000   22.4890  -21.6630 N.3   205  GLU205     -0.1245
     78  CA       -12.3780   21.3160  -21.5800 C.3   205  GLU205      0.1567
     79  C        -13.8270   21.6660  -21.2240 C.2   205  GLU205      0.2260
     80  O        -14.7420   20.9710  -21.6480 O.2   205  GLU205     -0.2867
     81  CB       -11.7950   20.2510  -20.6260 C.3   205  GLU205      0.0388
     82  CG       -11.7610   20.6230  -19.1150 C.3   205  GLU205      0.1160
     83  CD       -10.5210   21.3840  -18.7000 C.2   205  GLU205      0.3649
     84  OE1       -9.7810   21.8920  -19.5800 O.co2 205  GLU205     -0.2457
     85  OE2      -10.2900   21.4900  -17.4800 O.co2 205  GLU205     -0.2457
     86  N         -0.9830   25.5170  -14.0510 N.3   232  TYR232     -0.1241
     87  CA        -1.1880   24.6980  -12.8420 C.3   232  TYR232      0.1605
     88  C         -0.6320   23.2930  -13.0140 C.2   232  TYR232      0.2264
     89  O         -0.5570   22.7900  -14.1220 O.2   232  TYR232     -0.2867
     90  CB        -2.6800   24.6400  -12.4210 C.3   232  TYR232      0.0534
     91  CG        -3.5510   23.8810  -13.3940 C.ar  232  TYR232     -0.0201
     92  CD1       -3.5810   22.4710  -13.4030 C.ar  232  TYR232     -0.0009
     93  CD2       -4.3340   24.5590  -14.3040 C.ar  232  TYR232     -0.0009
     94  CE1       -4.3480   21.7700  -14.3290 C.ar  232  TYR232      0.0417
     95  CE2       -5.1220   23.8740  -15.2100 C.ar  232  TYR232      0.0417
     96  CZ        -5.1300   22.4880  -15.2210 C.ar  232  TYR232      0.1957
     97  OH        -5.9020   21.8290  -16.1510 O.3   232  TYR232     -0.2866
     98  N         -1.5370   19.6140  -11.0480 N.3   234  ASP234     -0.1239
     99  CA        -2.2560   18.7910  -10.0530 C.3   234  ASP234      0.1674
    100  C         -1.5000   17.4650   -9.8660 C.2   234  ASP234      0.2266
    101  O         -0.9080   16.9810  -10.8220 O.2   234  ASP234     -0.2867
    102  CB        -3.6550   18.4840  -10.5830 C.3   234  ASP234      0.1410
    103  CG        -4.5690   19.7150  -10.5970 C.2   234  ASP234      0.3668
    104  OD1       -4.4440   20.5440   -9.6930 O.co2 234  ASP234     -0.2456
    105  OD2       -5.4380   19.8200  -11.5000 O.co2 234  ASP234     -0.2456
    106  N         -7.1880   17.0760  -23.5030 N.3   270  PHE270     -0.1241
    107  CA        -5.9050   17.5000  -22.9780 C.3   270  PHE270      0.1605
    108  C         -4.7570   16.9880  -23.8380 C.2   270  PHE270      0.2264
    109  O         -4.8480   15.8900  -24.4010 O.2   270  PHE270     -0.2867
    110  CB        -5.7170   16.8830  -21.6050 C.3   270  PHE270      0.0534
    111  CG        -6.5810   17.4480  -20.5250 C.ar  270  PHE270     -0.0203
    112  CD1       -7.1100   18.7370  -20.5960 C.ar  270  PHE270     -0.0042
    113  CD2       -6.7700   16.7070  -19.3560 C.ar  270  PHE270     -0.0042
    114  CE1       -7.8560   19.2510  -19.5300 C.ar  270  PHE270     -0.0003
    115  CE2       -7.4890   17.2160  -18.2890 C.ar  270  PHE270     -0.0003
    116  CZ        -8.0420   18.4690  -18.3690 C.ar  270  PHE270     -0.0000
    117  N          1.9360   28.0990  -10.9670 N.3   299  LYS299     -0.1245
    118  CA         1.4860   28.7310   -9.7250 C.3   299  LYS299      0.1561
    119  C          2.0510   27.9640   -8.5430 C.2   299  LYS299      0.2260
    120  O          1.9620   26.7220   -8.4770 O.2   299  LYS299     -0.2867
    121  CB        -0.0440   28.7400   -9.6430 C.3   299  LYS299      0.0271
    122  CG        -0.7240   29.6780  -10.6480 C.3   299  LYS299      0.0035
    123  CD        -2.2460   29.5070  -10.5580 C.3   299  LYS299      0.0206
    124  CE        -2.6810   28.1390  -11.0590 C.3   299  LYS299      0.1093
    125  NZ        -4.1680   27.9340  -10.9210 N.3   299  LYS299     -0.1314
@<TRIPOS>BOND
     1   109   108    2
     2   108   107    1
     3   106   107    1
     4   107   110    1
     5    77    78    1
     6    80    79    2
     7   110   111    1
     8    78    79    1
     9    78    81    1
    10    81    82    1
    11   112   111   ar
    12   112   114   ar
    13   111   113   ar
    14    69    68    2
    15    68    67    1
    16    84    83   ar
    17   114   116   ar
    18   113   115   ar
    19    82    83    1
    20    67    66    1
    21    67    70    1
    22    83    85   ar
    23   116   115   ar
    24    70    71    1
    25    71    72   ar
    26    71    73   ar
    27    72    74   ar
    28    97    96    1
    29    73    75   ar
    30    74    76   ar
    31    96    95   ar
    32    96    94   ar
    33    95    93   ar
    34    94    92   ar
    35    93    91   ar
    36    75    76   ar
    37    89    88    2
    38    23    21   ar
    39    23    25   ar
    40    86    87    1
    41    18    17    2
    42    64    63   ar
    43    21    20   ar
    44    26    25    1
    45    92    91   ar
    46    91    90    1
    47    25    24   ar
    48    17    16    1
    49    60    59    2
    50    88    87    1
    51    63    65   ar
    52    63    62    1
    53    16    15    1
    54    16    19    1
    55    87    90    1
    56    20    19    1
    57    20    22   ar
    58    62    61    1
    59    61    58    1
    60    59    58    1
    61    24    22   ar
    62    58    57    1
    63   105   103   ar
    64   124   125    1
    65   124   123    1
    66    98    99    1
    67   117   118    1
    68   101   100    2
    69   122   123    1
    70   122   121    1
    71   103   102    1
    72   103   104   ar
    73   102    99    1
    74    99   100    1
    75   118   121    1
    76   118   119    1
    77     4     3    2
    78    52    51    2
    79    53    54    1
    80    53    50    1
    81     5     6    1
    82     5     2    1
    83    49    50    1
    84     3     2    1
    85    56    54   ar
    86     6     8   ar
    87     6     7   ar
    88    54    55   ar
    89    11     8   ar
    90    11    13   ar
    91    50    51    1
    92   119   120    2
    93     8    10   ar
    94     7     9   ar
    95    13    14   ar
    96     2     1    1
    97    10     9   ar
    98    10    12   ar
    99    14    12   ar
   100    39    36    1
   101    39    40    1
   102    36    37    1
   103    36    35    1
   104    37    38    2
   105    47    46   ar
   106    34    32   am
   107    41    42    1
   108    46    48   ar
   109    46    45    1
   110    32    33    2
   111    32    31    1
   112    45    42    1
   113    42    43    1
   114    27    28    1
   115    31    28    1
   116    43    44    2
   117    28    29    1
   118    29    30    2
