@<TRIPOS>MOLECULE
tmp/2v85B00.pdb
 193 193 0 0 0
SMALL
GASTEIGER

@<TRIPOS>ATOM
      1  N        -20.8140   14.5830   22.4910 N.3     6  PRO6       -0.2116
      2  CA       -21.2970   13.4630   21.6910 C.3     6  PRO6        0.1372
      3  C        -20.9160   13.5000   20.2090 C.2     6  PRO6        0.2244
      4  O        -20.4530   12.5200   19.6630 O.2     6  PRO6       -0.2868
      5  CB       -22.7960   13.5320   21.9080 C.3     6  PRO6        0.0268
      6  CG       -22.8820   14.0490   23.3230 C.3     6  PRO6        0.0207
      7  CD       -21.8740   15.1250   23.3640 C.3     6  PRO6        0.0892
      8  N        -17.7720   11.9750   17.6370 N.3     9  GLY9       -0.1210
      9  CA       -17.4990   11.0080   16.5920 C.3     9  GLY9        0.1956
     10  C        -17.5670   11.6110   15.1950 C.2     9  GLY9        0.2611
     11  O        -17.0300   11.0470   14.2600 O.2     9  GLY9       -0.2717
     12  N        -18.2130   12.7540   15.0440 N.am   10  TYR10      -0.1976
     13  CA       -18.3290   13.3720   13.7250 C.3    10  TYR10       0.1639
     14  C        -17.1820   14.2260   13.2430 C.2    10  TYR10       0.2290
     15  O        -16.8260   14.1720   12.0850 O.2    10  TYR10      -0.2864
     16  CB       -19.6210   14.2040   13.6240 C.3    10  TYR10       0.0560
     17  CG       -20.8960   13.3930   13.5570 C.ar   10  TYR10      -0.0198
     18  CD1      -21.6630   13.1730   14.6990 C.ar   10  TYR10      -0.0009
     19  CD2      -21.3420   12.8540   12.3500 C.ar   10  TYR10      -0.0009
     20  CE1      -22.8470   12.4470   14.6440 C.ar   10  TYR10       0.0417
     21  CE2      -22.5270   12.1230   12.2820 C.ar   10  TYR10       0.0417
     22  CZ       -23.2710   11.9260   13.4360 C.ar   10  TYR10       0.1957
     23  OH       -24.4470   11.2240   13.3690 O.3    10  TYR10      -0.2866
     24  N        -27.6450   14.7750   -0.0690 N.3    30  SER30      -0.1202
     25  CA       -28.9830   15.3150    0.1390 C.3    30  SER30       0.2020
     26  C        -29.5500   14.9740    1.5130 C.2    30  SER30       0.2619
     27  O        -30.5240   15.5560    1.9390 O.2    30  SER30      -0.2717
     28  CB       -29.9340   14.8000   -0.9460 C.3    30  SER30       0.2103
     29  OG       -30.1000   13.3980   -0.8540 O.3    30  SER30      -0.2182
     30  N        -28.9180   14.0300    2.2010 N.am   31  THR31      -0.1938
     31  CA       -29.3780   13.6090    3.5200 C.3    31  THR31       0.2028
     32  C        -28.7190   14.3550    4.6790 C.2    31  THR31       0.2642
     33  O        -29.1130   14.1850    5.8160 O.2    31  THR31      -0.2714
     34  CB       -29.1360   12.1000    3.7360 C.3    31  THR31       0.1808
     35  OG1      -27.7390   11.8160    3.5980 O.3    31  THR31      -0.2208
     36  CG2      -29.9230   11.2770    2.7210 C.3    31  THR31       0.0379
     37  N        -27.7180   15.1810    4.3870 N.am   32  GLU32      -0.1963
     38  CA       -27.0260   15.9160    5.4430 C.3    32  GLU32       0.1733
     39  C        -27.6840   17.2440    5.7990 C.2    32  GLU32       0.2616
     40  O        -28.3230   17.8750    4.9720 O.2    32  GLU32      -0.2715
     41  CB       -25.5680   16.1830    5.0470 C.3    32  GLU32       0.0429
     42  CG       -24.7310   14.9390    4.8250 C.3    32  GLU32       0.1163
     43  CD       -23.3680   15.2550    4.2320 C.2    32  GLU32       0.3649
     44  OE1      -23.3150   16.0400    3.2600 O.co2  32  GLU32      -0.2457
     45  OE2      -22.3510   14.7190    4.7290 O.co2  32  GLU32      -0.2457
     46  N        -27.5140   17.6480    7.0540 N.am   33  LEU33      -0.1963
     47  CA       -28.0460   18.9110    7.5390 C.3    33  LEU33       0.1728
     48  C        -26.8910   19.6780    8.1610 C.2    33  LEU33       0.2616
     49  O        -26.3450   20.5620    7.5320 O.2    33  LEU33      -0.2715
     50  CB       -29.1680   18.6760    8.5530 C.3    33  LEU33       0.0311
     51  CG       -30.4810   18.1890    7.9230 C.3    33  LEU33       0.0022
     52  CD1      -31.4560   17.7460    9.0020 C.3    33  LEU33       0.0001
     53  CD2      -31.0870   19.3030    7.0860 C.3    33  LEU33       0.0001
     54  N        -26.5030   19.3230    9.3840 N.am   34  ASN34      -0.1958
     55  CA       -25.3910   20.0110   10.0310 C.3    34  ASN34       0.1819
     56  C        -24.2420   19.0790   10.4260 C.2    34  ASN34       0.2621
     57  O        -23.2950   19.4990   11.0630 O.2    34  ASN34      -0.2715
     58  CB       -25.8850   20.7970   11.2560 C.3    34  ASN34       0.1195
     59  CG       -26.5220   19.9130   12.3190 C.2    34  ASN34       0.2630
     60  OD1      -27.0240   20.4060   13.3150 O.2    34  ASN34      -0.2716
     61  ND2      -26.4960   18.6070   12.1090 N.am   34  ASN34      -0.0877
     62  N        -24.3360   17.8140   10.0250 N.am   35  LYS35      -0.1964
     63  CA       -23.3080   16.8230   10.3350 C.3    35  LYS35       0.1713
     64  C        -22.9890   15.9790    9.1040 C.2    35  LYS35       0.2458
     65  O        -23.8720   15.6380    8.3450 O.2    35  LYS35      -0.2730
     66  CB       -23.7790   15.8960   11.4630 C.3    35  LYS35       0.0311
     67  CG       -24.1260   16.5950   12.7610 C.3    35  LYS35       0.0038
     68  CD       -24.6030   15.5900   13.8040 C.3    35  LYS35       0.0206
     69  CE       -25.2140   16.2810   15.0060 C.3    35  LYS35       0.1093
     70  NZ       -26.5080   16.9090   14.6420 N.3    35  LYS35      -0.1314
     71  N        -21.7070   15.6300    8.9040 N.am   36  PRO36      -0.2716
     72  CA       -21.3340   14.8230    7.7420 C.3    36  PRO36       0.1536
     73  C        -21.8020   13.3790    7.8650 C.2    36  PRO36       0.2598
     74  O        -21.8030   12.8090    8.9500 O.2    36  PRO36      -0.2715
     75  CB       -19.8150   14.9280    7.7270 C.3    36  PRO36       0.0310
     76  CG       -19.4840   14.9860    9.2010 C.3    36  PRO36       0.0237
     77  CD       -20.5230   15.9590    9.7220 C.3    36  PRO36       0.0939
     78  N        -22.1970   12.7980    6.7350 N.am   37  ALA37      -0.1964
     79  CA       -22.6450   11.4130    6.7100 C.3    37  ALA37       0.1728
     80  C        -21.4270   10.5280    6.9300 C.2    37  ALA37       0.2616
     81  O        -20.3270   10.8560    6.5080 O.2    37  ALA37      -0.2715
     82  CB       -23.2910   11.0900    5.3750 C.3    37  ALA37       0.0334
     83  N        -21.6320    9.4010    7.5910 N.am   38  MET38      -0.1963
     84  CA       -20.5260    8.4970    7.8660 C.3    38  MET38       0.1736
     85  C        -20.9290    7.0420    7.6850 C.2    38  MET38       0.2616
     86  O        -22.1120    6.7120    7.6770 O.2    38  MET38      -0.2715
     87  CB       -20.0190    8.7120    9.2940 C.3    38  MET38       0.0427
     88  CG       -19.6060   10.1500    9.5710 C.3    38  MET38       0.0599
     89  SD       -19.1240   10.4490   11.3010 S.3    38  MET38      -0.1393
     90  CE       -17.5610   10.0880   11.2280 C.3    38  MET38       0.0692
     91  N        -19.9220    6.1820    7.5320 N.am   39  ILE39      -0.1963
     92  CA       -20.1600    4.7560    7.3570 C.3    39  ILE39       0.1727
     93  C        -19.1890    3.9800    8.2270 C.2    39  ILE39       0.2616
     94  O        -18.0440    4.3360    8.3620 O.2    39  ILE39      -0.2715
     95  CB       -20.0000    4.3360    5.8720 C.3    39  ILE39       0.0290
     96  CG1      -20.5210    2.9020    5.6490 C.3    39  ILE39       0.0022
     97  CG2      -18.5730    4.5320    5.4200 C.3    39  ILE39       0.0023
     98  CD1      -19.7470    1.7910    6.3550 C.3    39  ILE39       0.0001
     99  N        -19.6860    2.8770    8.7780 N.am   40  TYR40      -0.1974
    100  CA       -18.9110    2.0120    9.6550 C.3    40  TYR40       0.1639
    101  C        -18.0580    0.9590    8.9430 C.2    40  TYR40       0.2290
    102  O        -18.5630    0.1760    8.1550 O.2    40  TYR40      -0.2864
    103  CB       -19.8590    1.3120   10.6260 C.3    40  TYR40       0.0560
    104  CG       -19.1650    0.5010   11.6880 C.ar   40  TYR40      -0.0198
    105  CD1      -18.4110    1.1210   12.6820 C.ar   40  TYR40      -0.0009
    106  CD2      -19.2590   -0.8910   11.6990 C.ar   40  TYR40      -0.0009
    107  CE1      -17.7660    0.3730   13.6650 C.ar   40  TYR40       0.0417
    108  CE2      -18.6150   -1.6500   12.6800 C.ar   40  TYR40       0.0417
    109  CZ       -17.8720   -1.0100   13.6560 C.ar   40  TYR40       0.1957
    110  OH       -17.2350   -1.7520   14.6260 O.3    40  TYR40      -0.2866
    111  N        -15.2660    4.5240   12.2830 N.3    48  TRP48      -0.1241
    112  CA       -16.1260    5.2710   11.3760 C.3    48  TRP48       0.1605
    113  C        -15.3490    6.2200   10.4780 C.2    48  TRP48       0.2264
    114  O        -14.3700    6.8120   10.8950 O.2    48  TRP48      -0.2867
    115  CB       -17.1480    6.0910   12.1700 C.3    48  TRP48       0.0550
    116  CG       -18.1460    5.2760   12.9260 C.ar   48  TRP48       0.0003
    117  CD1      -17.9790    4.6850   14.1490 C.ar   48  TRP48       0.0946
    118  CD2      -19.4750    4.9570   12.5030 C.ar   48  TRP48       0.0152
    119  NE1      -19.1310    4.0200   14.5150 N.ar   48  TRP48      -0.2442
    120  CE2      -20.0630    4.1720   13.5210 C.ar   48  TRP48       0.0810
    121  CE3      -20.2300    5.2630   11.3590 C.ar   48  TRP48       0.0012
    122  CZ2      -21.3670    3.6850   13.4280 C.ar   48  TRP48       0.0191
    123  CZ3      -21.5250    4.7800   11.2680 C.ar   48  TRP48       0.0001
    124  CH2      -22.0830    4.0000   12.2990 C.ar   48  TRP48       0.0015
    125  N        -23.6470    5.3650   -1.3310 N.3    61  LEU61      -0.1231
    126  CA       -23.8120    5.4700    0.1200 C.3    61  LEU61       0.1693
    127  C        -25.1870    4.9550    0.5500 C.2    61  LEU61       0.2591
    128  O        -25.2940    4.1230    1.4430 O.2    61  LEU61      -0.2718
    129  CB       -23.6720    6.9330    0.5650 C.3    61  LEU61       0.0284
    130  CG       -23.6360    7.1880    2.0880 C.3    61  LEU61       0.0019
    131  CD1      -22.3140    6.6880    2.6490 C.3    61  LEU61       0.0001
    132  CD2      -23.7970    8.6850    2.3580 C.3    61  LEU61       0.0001
    133  N        -26.2350    5.4430   -0.1120 N.am   62  ILE62      -0.1980
    134  CA       -27.6060    5.0390    0.1940 C.3    62  ILE62       0.1595
    135  C        -27.8010    3.5400    0.0090 C.2    62  ILE62       0.2287
    136  O        -28.4510    2.9010    0.8130 O.2    62  ILE62      -0.2864
    137  CB       -28.6290    5.7850   -0.7000 C.3    62  ILE62       0.0276
    138  CG1      -28.5180    7.2970   -0.4720 C.3    62  ILE62       0.0022
    139  CG2      -30.0440    5.3080   -0.3880 C.3    62  ILE62       0.0022
    140  CD1      -28.7140    7.7210    0.9670 C.3    62  ILE62       0.0001
    141  N        -25.5510    1.1620    0.2400 N.3    64  LEU64      -0.1231
    142  CA       -24.8630    0.5230    1.3550 C.3    64  LEU64       0.1693
    143  C        -25.6530    0.6610    2.6530 C.2    64  LEU64       0.2592
    144  O        -25.7330   -0.2730    3.4320 O.2    64  LEU64      -0.2718
    145  CB       -23.4660    1.1300    1.5360 C.3    64  LEU64       0.0284
    146  CG       -22.4420    0.8030    0.4460 C.3    64  LEU64       0.0019
    147  CD1      -21.1800    1.6260    0.6470 C.3    64  LEU64       0.0001
    148  CD2      -22.1230   -0.6820    0.4840 C.3    64  LEU64       0.0001
    149  N        -26.2410    1.8350    2.8670 N.am   65  SER65      -0.1952
    150  CA       -27.0170    2.0990    4.0750 C.3    65  SER65       0.1924
    151  C        -28.3030    1.2810    4.1370 C.2    65  SER65       0.2314
    152  O        -28.7780    0.9590    5.2110 O.2    65  SER65      -0.2863
    153  CB       -27.3730    3.5820    4.1650 C.3    65  SER65       0.2116
    154  OG       -28.3230    3.9350    3.1720 O.3    65  SER65      -0.2180
    155  N        -28.6160   -1.7410    2.8420 N.3    67  GLY67      -0.1210
    156  CA       -28.2890   -3.1550    2.9160 C.3    67  GLY67       0.1956
    157  C        -27.8460   -3.6480    4.2810 C.2    67  GLY67       0.2613
    158  O        -27.6430   -2.8700    5.1970 O.2    67  GLY67      -0.2717
    159  N        -27.6980   -4.9650    4.4020 N.am   68  SER68      -0.1938
    160  CA       -27.2810   -5.5950    5.6520 C.3    68  SER68       0.2055
    161  C        -25.7980   -5.9760    5.5950 C.2    68  SER68       0.2643
    162  O        -25.2570   -6.5240    6.5410 O.2    68  SER68      -0.2714
    163  CB       -28.1280   -6.8460    5.9190 C.3    68  SER68       0.2130
    164  OG       -27.9480   -7.8170    4.8980 O.3    68  SER68      -0.2179
    165  N        -25.1710   -5.6670    4.4620 N.am   69  ASN69      -0.1957
    166  CA       -23.7530   -5.9340    4.1940 C.3    69  ASN69       0.1819
    167  C        -22.8130   -5.1520    5.1030 C.2    69  ASN69       0.2621
    168  O        -23.1040   -4.0340    5.4740 O.2    69  ASN69      -0.2715
    169  CB       -23.3820   -5.4920    2.7770 C.3    69  ASN69       0.1195
    170  CG       -23.7250   -6.5050    1.7140 C.2    69  ASN69       0.2630
    171  OD1      -23.5760   -6.2240    0.5350 O.2    69  ASN69      -0.2716
    172  ND2      -24.1720   -7.6860    2.1200 N.am   69  ASN69      -0.0877
    173  N        -21.6590   -5.7320    5.4210 N.am   70  LYS70      -0.1963
    174  CA       -20.6770   -5.0040    6.2110 C.3    70  LYS70       0.1728
    175  C        -19.8670   -4.1960    5.2030 C.2    70  LYS70       0.2616
    176  O        -19.8980   -4.4740    4.0170 O.2    70  LYS70      -0.2715
    177  CB       -19.7560   -5.9530    6.9780 C.3    70  LYS70       0.0311
    178  CG       -20.4710   -6.7350    8.0610 C.3    70  LYS70       0.0038
    179  CD       -19.5150   -7.3020    9.0940 C.3    70  LYS70       0.0206
    180  CE       -18.4900   -8.2410    8.4830 C.3    70  LYS70       0.1093
    181  NZ       -17.2550   -7.5220    8.0680 N.3    70  LYS70      -0.1314
    182  N        -19.1490   -3.1950    5.6910 N.am   71  TYR71      -0.1974
    183  CA       -18.3390   -2.3470    4.8320 C.3    71  TYR71       0.1639
    184  C        -16.9000   -2.2710    5.3260 C.2    71  TYR71       0.2290
    185  O        -16.6570   -2.2570    6.5180 O.2    71  TYR71      -0.2864
    186  CB       -18.9480   -0.9360    4.7780 C.3    71  TYR71       0.0560
    187  CG       -18.0850    0.1130    4.0900 C.ar   71  TYR71      -0.0198
    188  CD1      -17.2260    0.9400    4.8220 C.ar   71  TYR71      -0.0009
    189  CD2      -18.1210    0.2710    2.7080 C.ar   71  TYR71      -0.0009
    190  CE1      -16.4300    1.9040    4.1910 C.ar   71  TYR71       0.0417
    191  CE2      -17.3210    1.2300    2.0650 C.ar   71  TYR71       0.0417
    192  CZ       -16.4810    2.0400    2.8130 C.ar   71  TYR71       0.1957
    193  OH       -15.6880    2.9760    2.1830 O.3    71  TYR71      -0.2866
@<TRIPOS>BOND
     1   125   126    1
     2    28    29    1
     3    28    25    1
     4   137   138    1
     5   137   139    1
     6   137   134    1
     7   138   140    1
     8   133   134    1
     9   133   127   am
    10    24    25    1
    11   135   134    1
    12   135   136    2
    13   126   127    1
    14   126   129    1
    15    25    26    1
    16   141   142    1
    17   146   148    1
    18   146   147    1
    19   146   145    1
    20   171   170    2
    21   127   128    2
    22   129   130    1
    23   142   145    1
    24   142   143    1
    25    26    27    2
    26    26    30   am
    27   170   172   am
    28   170   169    1
    29   191   189   ar
    30   191   192   ar
    31   130   132    1
    32   130   131    1
    33   193   192    1
    34    30    31    1
    35   143   149   am
    36   143   144    2
    37   189   187   ar
    38    36    34    1
    39   169   166    1
    40   192   190   ar
    41   155   156    1
    42   149   150    1
    43   156   157    1
    44   154   153    1
    45    44    43   ar
    46    31    34    1
    47    31    32    1
    48    35    34    1
    49   176   175    2
    50   150   151    1
    51   150   153    1
    52   187   186    1
    53   187   188   ar
    54   151   152    2
    55   190   188   ar
    56   166   165    1
    57   166   167    1
    58    43    45   ar
    59    43    42    1
    60   157   159   am
    61   157   158    2
    62    37    32   am
    63    37    38    1
    64   159   160    1
    65   165   161   am
    66    32    33    2
    67   186   183    1
    68    42    41    1
    69   183   184    1
    70   183   182    1
    71   164   163    1
    72    40    39    2
    73    41    38    1
    74   167   173   am
    75   167   168    2
    76   175   182   am
    77   175   174    1
    78   184   185    2
    79    82    79    1
    80    97    95    1
    81   173   174    1
    82    38    39    1
    83   161   160    1
    84   161   162    2
    85    96    95    1
    86    96    98    1
    87   160   163    1
    88    39    46   am
    89    95    92    1
    90   174   177    1
    91    81    80    2
    92    79    78    1
    93    79    80    1
    94    78    73   am
    95    80    83   am
    96   177   178    1
    97    46    47    1
    98    53    51    1
    99    92    91    1
   100    92    93    1
   101    91    85   am
   102    49    48    2
   103    47    48    1
   104    47    50    1
   105    83    84    1
   106    86    85    2
   107    85    84    1
   108    75    72    1
   109    75    76    1
   110    72    73    1
   111    72    71    1
   112    73    74    2
   113    84    87    1
   114    51    50    1
   115    51    52    1
   116   178   179    1
   117   181   180    1
   118   102   101    2
   119    48    54   am
   120    93    94    2
   121    93    99   am
   122    65    64    2
   123   180   179    1
   124    99   100    1
   125    71    64   am
   126    71    77    1
   127   101   100    1
   128    64    63    1
   129    76    77    1
   130    87    88    1
   131    54    55    1
   132    88    89    1
   133   100   103    1
   134    62    63    1
   135    62    56   am
   136    55    56    1
   137    55    58    1
   138    63    66    1
   139    56    57    2
   140   113   114    2
   141   113   112    1
   142   103   104    1
   143    90    89    1
   144    58    59    1
   145   123   121   ar
   146   123   124   ar
   147   121   118   ar
   148   112   115    1
   149   112   111    1
   150    66    67    1
   151   104   106   ar
   152   104   105   ar
   153   106   108   ar
   154    15    14    2
   155    61    59   am
   156   115   116    1
   157    21    19   ar
   158    21    22   ar
   159   124   122   ar
   160    59    60    2
   161    19    17   ar
   162   118   116   ar
   163   118   120   ar
   164   108   109   ar
   165   105   107   ar
   166    67    68    1
   167   116   117   ar
   168    14    13    1
   169    23    22    1
   170   122   120   ar
   171    22    20   ar
   172   120   119   ar
   173    17    16    1
   174    17    18   ar
   175    16    13    1
   176   109   107   ar
   177   109   110    1
   178    13    12    1
   179    68    69    1
   180   117   119   ar
   181    11    10    2
   182    70    69    1
   183    20    18   ar
   184    12    10   am
   185    10     9    1
   186     9     8    1
   187     4     3    2
   188     3     2    1
   189     2     5    1
   190     2     1    1
   191     5     6    1
   192     1     7    1
   193     6     7    1
