@<TRIPOS>MOLECULE
tmp/2v86A00.pdb
 165 164 0 0 0
SMALL
GASTEIGER

@<TRIPOS>ATOM
      1  N         15.8400  -18.2460   23.8170 N.3     9  GLY9       -0.1210
      2  CA        16.4400  -16.9220   23.8180 C.3     9  GLY9        0.1956
      3  C         15.8680  -16.1180   24.9780 C.2     9  GLY9        0.2611
      4  O         16.5070  -15.2300   25.5230 O.2     9  GLY9       -0.2717
      5  N         14.6390  -16.4560   25.3500 N.am   10  TYR10      -0.1976
      6  CA        13.9490  -15.7910   26.4430 C.3    10  TYR10       0.1639
      7  C         14.3620  -16.3060   27.8150 C.2    10  TYR10       0.2290
      8  O         14.4170  -15.5510   28.7710 O.2    10  TYR10      -0.2864
      9  CB        12.4330  -15.9760   26.3130 C.3    10  TYR10       0.0560
     10  CG        11.7630  -15.0210   25.3680 C.ar   10  TYR10      -0.0198
     11  CD1       11.4620  -15.3910   24.0590 C.ar   10  TYR10      -0.0009
     12  CD2       11.4190  -13.7430   25.7870 C.ar   10  TYR10      -0.0009
     13  CE1       10.8290  -14.5030   23.1930 C.ar   10  TYR10       0.0417
     14  CE2       10.7900  -12.8500   24.9320 C.ar   10  TYR10       0.0417
     15  CZ        10.4960  -13.2340   23.6400 C.ar   10  TYR10       0.1957
     16  OH         9.8480  -12.3470   22.8140 O.3    10  TYR10      -0.2866
     17  N          3.3360   -4.3340   32.3080 N.3    30  SER30      -0.1202
     18  CA         1.9970   -4.3930   31.7330 C.3    30  SER30       0.2020
     19  C          1.9830   -5.0270   30.3490 C.2    30  SER30       0.2619
     20  O          0.9590   -5.4800   29.8880 O.2    30  SER30      -0.2717
     21  CB         1.4030   -2.9870   31.6400 C.3    30  SER30       0.2103
     22  OG         2.1080   -2.2020   30.6920 O.3    30  SER30      -0.2182
     23  N          3.1420   -5.0530   29.7020 N.am   31  THR31      -0.1938
     24  CA         3.2660   -5.6030   28.3620 C.3    31  THR31       0.2028
     25  C          3.5660   -7.0980   28.3220 C.2    31  THR31       0.2642
     26  O          3.6190   -7.6840   27.2570 O.2    31  THR31      -0.2714
     27  CB         4.3720   -4.8760   27.6030 C.3    31  THR31       0.1808
     28  OG1        5.6220   -5.0970   28.2670 O.3    31  THR31      -0.2208
     29  CG2        4.0890   -3.3770   27.5650 C.3    31  THR31       0.0379
     30  N          3.7670   -7.7080   29.4840 N.am   32  GLU32      -0.1963
     31  CA         4.0760   -9.1370   29.5400 C.3    32  GLU32       0.1733
     32  C          2.8570  -10.0150   29.8190 C.2    32  GLU32       0.2616
     33  O          1.8910   -9.5890   30.4410 O.2    32  GLU32      -0.2715
     34  CB         5.1260   -9.4160   30.6240 C.3    32  GLU32       0.0429
     35  CG         6.4420   -8.6700   30.4550 C.3    32  GLU32       0.1163
     36  CD         7.3500   -8.8220   31.6620 C.2    32  GLU32       0.3649
     37  OE1        6.8550   -8.6520   32.7990 O.co2  32  GLU32      -0.2457
     38  OE2        8.5570   -9.1000   31.4790 O.co2  32  GLU32      -0.2457
     39  N          2.9260  -11.2490   29.3370 N.am   33  LEU33      -0.1963
     40  CA         1.8740  -12.2260   29.5580 C.3    33  LEU33       0.1728
     41  C          2.5290  -13.5440   29.9400 C.2    33  LEU33       0.2616
     42  O          2.4350  -13.9670   31.0700 O.2    33  LEU33      -0.2715
     43  CB         1.0160  -12.4160   28.3080 C.3    33  LEU33       0.0311
     44  CG         0.0320  -11.2990   27.9650 C.3    33  LEU33       0.0022
     45  CD1       -0.6780  -11.6330   26.6550 C.3    33  LEU33       0.0001
     46  CD2       -0.9720  -11.1320   29.0970 C.3    33  LEU33       0.0001
     47  N          3.2240  -14.1720   28.9960 N.am   34  ASN34      -0.1958
     48  CA         3.8650  -15.4530   29.2780 C.3    34  ASN34       0.1819
     49  C          5.3670  -15.4780   29.0280 C.2    34  ASN34       0.2621
     50  O          6.0030  -16.5130   29.1810 O.2    34  ASN34      -0.2715
     51  CB         3.1940  -16.5470   28.4550 C.3    34  ASN34       0.1195
     52  CG         1.6980  -16.5820   28.6640 C.2    34  ASN34       0.2630
     53  OD1        1.2240  -16.8820   29.7460 O.2    34  ASN34      -0.2716
     54  ND2        0.9490  -16.2590   27.6170 N.am   34  ASN34      -0.0877
     55  N          5.9230  -14.3320   28.6490 N.am   35  LYS35      -0.1964
     56  CA         7.3550  -14.2180   28.3800 C.3    35  LYS35       0.1713
     57  C          7.9080  -12.9110   28.9440 C.2    35  LYS35       0.2458
     58  O          7.2390  -11.8940   28.9330 O.2    35  LYS35      -0.2730
     59  CB         7.6110  -14.2760   26.8720 C.3    35  LYS35       0.0311
     60  CG         7.4040  -15.6460   26.2540 C.3    35  LYS35       0.0038
     61  CD         7.4520  -15.5650   24.7380 C.3    35  LYS35       0.0206
     62  CE         7.5000  -16.9450   24.1130 C.3    35  LYS35       0.1093
     63  NZ         6.4070  -17.8300   24.6000 N.3    35  LYS35      -0.1314
     64  N          9.1550  -12.9340   29.4390 N.am   36  PRO36      -0.2716
     65  CA         9.7710  -11.7320   30.0050 C.3    36  PRO36       0.1536
     66  C         10.1950  -10.7040   28.9620 C.2    36  PRO36       0.2598
     67  O         10.7060  -11.0550   27.9130 O.2    36  PRO36      -0.2715
     68  CB        10.9620  -12.2920   30.7780 C.3    36  PRO36       0.0310
     69  CG        11.3770  -13.4510   29.9270 C.3    36  PRO36       0.0237
     70  CD        10.0510  -14.0980   29.5710 C.3    36  PRO36       0.0939
     71  N          9.9720   -9.4290   29.2660 N.am   37  ALA37      -0.1964
     72  CA        10.3630   -8.3610   28.3520 C.3    37  ALA37       0.1728
     73  C         11.8880   -8.3220   28.2890 C.2    37  ALA37       0.2616
     74  O         12.5610   -8.5200   29.2920 O.2    37  ALA37      -0.2715
     75  CB         9.8230   -7.0180   28.8390 C.3    37  ALA37       0.0334
     76  N         12.4250   -8.0740   27.1000 N.am   38  MET38      -0.1963
     77  CA        13.8690   -8.0190   26.9330 C.3    38  MET38       0.1736
     78  C         14.3300   -6.7840   26.1700 C.2    38  MET38       0.2616
     79  O         13.5630   -6.1580   25.4530 O.2    38  MET38      -0.2715
     80  CB        14.3620   -9.2870   26.2310 C.3    38  MET38       0.0427
     81  CG        14.0950  -10.5580   27.0370 C.3    38  MET38       0.0599
     82  SD        14.8570  -12.0280   26.3410 S.3    38  MET38      -0.1393
     83  CE        16.5270  -11.8490   26.9530 C.3    38  MET38       0.0692
     84  N         15.6000   -6.4440   26.3560 N.am   39  ILE39      -0.1963
     85  CA        16.1990   -5.2920   25.7000 C.3    39  ILE39       0.1727
     86  C         17.4930   -5.7290   25.0340 C.2    39  ILE39       0.2616
     87  O         18.2320   -6.5310   25.5800 O.2    39  ILE39      -0.2715
     88  CB        16.5260   -4.1820   26.7160 C.3    39  ILE39       0.0290
     89  CG1       15.2450   -3.7140   27.4120 C.3    39  ILE39       0.0022
     90  CG2       17.1970   -3.0190   26.0080 C.3    39  ILE39       0.0023
     91  CD1       15.4870   -2.7620   28.5630 C.3    39  ILE39       0.0001
     92  N         17.7580   -5.1930   23.8500 N.am   40  TYR40      -0.1974
     93  CA        18.9740   -5.5360   23.1250 C.3    40  TYR40       0.1639
     94  C         20.1150   -4.6100   23.5350 C.2    40  TYR40       0.2290
     95  O         20.0020   -3.3950   23.4550 O.2    40  TYR40      -0.2864
     96  CB        18.7330   -5.4250   21.6150 C.3    40  TYR40       0.0560
     97  CG        19.9310   -5.7820   20.7560 C.ar   40  TYR40      -0.0198
     98  CD1       20.4180   -7.0900   20.7090 C.ar   40  TYR40      -0.0009
     99  CD2       20.5630   -4.8160   19.9720 C.ar   40  TYR40      -0.0009
    100  CE1       21.5030   -7.4270   19.8980 C.ar   40  TYR40       0.0417
    101  CE2       21.6450   -5.1400   19.1610 C.ar   40  TYR40       0.0417
    102  CZ        22.1100   -6.4470   19.1270 C.ar   40  TYR40       0.1957
    103  OH        23.1760   -6.7730   18.3170 O.3    40  TYR40      -0.2866
    104  N         20.9240  -10.0150   24.3690 N.3    48  TRP48      -0.1241
    105  CA        19.6580   -9.6120   24.9680 C.3    48  TRP48       0.1605
    106  C         19.6530   -9.8060   26.4750 C.2    48  TRP48       0.2264
    107  O         20.1880  -10.7750   26.9750 O.2    48  TRP48      -0.2867
    108  CB        18.5010  -10.4150   24.3620 C.3    48  TRP48       0.0550
    109  CG        18.2380  -10.1350   22.9140 C.ar   48  TRP48       0.0003
    110  CD1       18.8810  -10.6800   21.8360 C.ar   48  TRP48       0.0946
    111  CD2       17.2610   -9.2270   22.3820 C.ar   48  TRP48       0.0152
    112  NE1       18.3650  -10.1660   20.6670 N.ar   48  TRP48      -0.2442
    113  CE2       17.3720   -9.2730   20.9760 C.ar   48  TRP48       0.0810
    114  CE3       16.3090   -8.3800   22.9600 C.ar   48  TRP48       0.0012
    115  CZ2       16.5570   -8.5010   20.1380 C.ar   48  TRP48       0.0191
    116  CZ3       15.5000   -7.6140   22.1270 C.ar   48  TRP48       0.0001
    117  CH2       15.6310   -7.6800   20.7320 C.ar   48  TRP48       0.0015
    118  N          8.8910    0.2550   34.5310 N.3    58  GLU58      -0.1245
    119  CA         8.1480    0.2270   33.2830 C.3    58  GLU58       0.1567
    120  C          8.2660    1.4540   32.3890 C.2    58  GLU58       0.2260
    121  O          8.4800    1.3150   31.2010 O.2    58  GLU58      -0.2867
    122  CB         6.6670   -0.0650   33.5420 C.3    58  GLU58       0.0388
    123  CG         5.8240   -0.0380   32.2700 C.3    58  GLU58       0.1160
    124  CD         4.5610   -0.8740   32.3830 C.2    58  GLU58       0.3649
    125  OE1        3.4670   -0.3450   32.1030 O.co2  58  GLU58      -0.2457
    126  OE2        4.6630   -2.0590   32.7510 O.co2  58  GLU58      -0.2457
    127  N         11.4300    1.3070   30.4960 N.3    61  LEU61      -0.1231
    128  CA        11.4000    0.2430   29.5030 C.3    61  LEU61       0.1693
    129  C         10.6260    0.7200   28.2710 C.2    61  LEU61       0.2591
    130  O         11.0480    0.5150   27.1490 O.2    61  LEU61      -0.2718
    131  CB        10.7060   -0.9910   30.0890 C.3    61  LEU61       0.0284
    132  CG        10.9200   -2.3750   29.4680 C.3    61  LEU61       0.0019
    133  CD1        9.6510   -3.1920   29.6640 C.3    61  LEU61       0.0001
    134  CD2       11.2510   -2.2740   27.9900 C.3    61  LEU61       0.0001
    135  N          9.4810    1.3520   28.5000 N.am   62  ILE62      -0.1980
    136  CA         8.6590    1.8390   27.4000 C.3    62  ILE62       0.1595
    137  C          9.3910    2.9030   26.5850 C.2    62  ILE62       0.2287
    138  O          9.3070    2.9150   25.3670 O.2    62  ILE62      -0.2864
    139  CB         7.3270    2.4140   27.9180 C.3    62  ILE62       0.0276
    140  CG1        6.5610    1.3320   28.6840 C.3    62  ILE62       0.0022
    141  CG2        6.4790    2.9010   26.7530 C.3    62  ILE62       0.0022
    142  CD1        6.2340    0.0980   27.8420 C.3    62  ILE62       0.0001
    143  N         12.5650    3.1450   26.1950 N.3    64  LEU64      -0.1231
    144  CA        13.5810    2.4460   25.4240 C.3    64  LEU64       0.1693
    145  C         12.9790    1.8070   24.1720 C.2    64  LEU64       0.2593
    146  O         13.5530    1.8880   23.0980 O.2    64  LEU64      -0.2718
    147  CB        14.2470    1.3790   26.2910 C.3    64  LEU64       0.0284
    148  CG        15.2250    1.9050   27.3450 C.3    64  LEU64       0.0019
    149  CD1       15.6110    0.7860   28.2970 C.3    64  LEU64       0.0001
    150  CD2       16.4560    2.4690   26.6480 C.3    64  LEU64       0.0001
    151  N         11.8110    1.1880   24.3200 N.am   65  SER65      -0.1938
    152  CA        11.1540    0.5320   23.1950 C.3    65  SER65       0.2055
    153  C         10.6990    1.5110   22.1130 C.2    65  SER65       0.2642
    154  O         10.5840    1.1400   20.9550 O.2    65  SER65      -0.2714
    155  CB         9.9470   -0.2720   23.6810 C.3    65  SER65       0.2130
    156  OG         8.8960    0.5840   24.0880 O.3    65  SER65      -0.2179
    157  N         10.4430    2.7580   22.5020 N.am   66  GLU66      -0.1976
    158  CA         9.9840    3.7770   21.5620 C.3    66  GLU66       0.1602
    159  C         11.1210    4.5740   20.9340 C.2    66  GLU66       0.2287
    160  O         10.9630    5.1380   19.8710 O.2    66  GLU66      -0.2864
    161  CB         9.0210    4.7370   22.2650 C.3    66  GLU66       0.0415
    162  CG         7.8980    4.0390   23.0190 C.3    66  GLU66       0.1163
    163  CD         7.0110    5.0030   23.7840 C.2    66  GLU66       0.3649
    164  OE1        7.5500    5.8850   24.4850 O.co2  66  GLU66      -0.2457
    165  OE2        5.7740    4.8720   23.6950 O.co2  66  GLU66      -0.2457
@<TRIPOS>BOND
     1   103   102    1
     2   102   101   ar
     3   102   100   ar
     4   101    99   ar
     5   160   159    2
     6   100    98   ar
     7    99    97   ar
     8   115   117   ar
     9   115   113   ar
    10   112   113   ar
    11   112   110   ar
    12    98    97   ar
    13   117   116   ar
    14    97    96    1
    15   159   158    1
    16   154   153    2
    17   113   111   ar
    18   158   161    1
    19   158   157    1
    20    96    93    1
    21   110   109   ar
    22   153   157   am
    23   153   152    1
    24   116   114   ar
    25   161   162    1
    26   111   109   ar
    27   111   114   ar
    28    16    15    1
    29   109   108    1
    30   162   163    1
    31   146   145    2
    32    93    94    1
    33    93    92    1
    34    13    15   ar
    35    13    11   ar
    36   152   155    1
    37   152   151    1
    38    95    94    2
    39    15    14   ar
    40   155   156    1
    41   165   163   ar
    42   163   164   ar
    43     1     2    1
    44     2     3    1
    45    92    86   am
    46    11    10   ar
    47    62    63    1
    48    62    61    1
    49   145   151   am
    50   145   144    1
    51   108   105    1
    52   104   105    1
    53    61    60    1
    54    14    12   ar
    55   105   106    1
    56     3     5   am
    57     3     4    2
    58    86    87    2
    59    86    85    1
    60     5     6    1
    61   138   137    2
    62    10    12   ar
    63    10     9    1
    64   144   143    1
    65   144   147    1
    66    79    78    2
    67    85    84    1
    68    85    88    1
    69    90    88    1
    70    78    84   am
    71    78    77    1
    72    80    77    1
    73    80    81    1
    74    60    59    1
    75   147   148    1
    76     9     6    1
    77    82    83    1
    78    82    81    1
    79     6     7    1
    80   106   107    2
    81   137   136    1
    82   150   148    1
    83    45    44    1
    84    88    89    1
    85   141   139    1
    86    59    56    1
    87    77    76    1
    88    76    73   am
    89   130   129    2
    90    26    25    2
    91   148   149    1
    92   136   139    1
    93   136   135    1
    94    89    91    1
    95    29    27    1
    96    27    28    1
    97    27    24    1
    98    54    52   am
    99     7     8    2
   100   142   140    1
   101    67    66    2
   102   139   140    1
   103    44    43    1
   104    44    46    1
   105   134   132    1
   106   129   135   am
   107   129   128    1
   108    73    72    1
   109    73    74    2
   110    43    40    1
   111    25    24    1
   112    25    30   am
   113    72    75    1
   114    72    71    1
   115    24    23    1
   116    56    55    1
   117    56    57    1
   118    51    52    1
   119    51    48    1
   120    55    49   am
   121    52    53    2
   122    58    57    2
   123    57    64   am
   124    66    71   am
   125    66    65    1
   126    47    48    1
   127    47    41   am
   128    49    50    2
   129    49    48    1
   130    39    40    1
   131    39    32   am
   132    64    70    1
   133    64    65    1
   134   132   133    1
   135   132   131    1
   136    30    31    1
   137   128   131    1
   138   128   127    1
   139    31    32    1
   140    31    34    1
   141    40    41    1
   142    70    69    1
   143    23    19   am
   144    32    33    2
   145    20    19    2
   146    69    68    1
   147    41    42    2
   148    65    68    1
   149    19    18    1
   150    35    34    1
   151    35    36    1
   152    22    21    1
   153   121   120    2
   154    38    36   ar
   155    21    18    1
   156    36    37   ar
   157    18    17    1
   158   125   124   ar
   159   123   124    1
   160   123   122    1
   161   124   126   ar
   162   120   119    1
   163   119   122    1
   164   119   118    1
