@<TRIPOS>MOLECULE
tmp/2v86B00.pdb
 215 216 0 0 0
SMALL
GASTEIGER

@<TRIPOS>ATOM
      1  N         20.7330  -18.7340    0.5090 N.3     8  PHE8       -0.1227
      2  CA        20.7770  -17.2950    0.7070 C.3     8  PHE8        0.1736
      3  C         19.4200  -16.6880    1.0220 C.2     8  PHE8        0.2596
      4  O         18.4300  -16.9950    0.3800 O.2     8  PHE8       -0.2718
      5  CB        21.3750  -16.6070   -0.5210 C.3     8  PHE8        0.0547
      6  CG        21.7780  -15.1830   -0.2730 C.ar    8  PHE8       -0.0202
      7  CD1       20.8820  -14.1380   -0.4810 C.ar    8  PHE8       -0.0042
      8  CD2       23.0480  -14.8920    0.2180 C.ar    8  PHE8       -0.0042
      9  CE1       21.2460  -12.8200   -0.2010 C.ar    8  PHE8       -0.0003
     10  CE2       23.4220  -13.5790    0.5020 C.ar    8  PHE8       -0.0003
     11  CZ        22.5210  -12.5410    0.2930 C.ar    8  PHE8       -0.0000
     12  N         19.3990  -15.8230    2.0290 N.am    9  GLY9       -0.1942
     13  CA        18.1640  -15.1700    2.4180 C.3     9  GLY9        0.2014
     14  C         17.4150  -15.8850    3.5250 C.2     9  GLY9        0.2638
     15  O         16.5170  -15.3150    4.1170 O.2     9  GLY9       -0.2714
     16  N         17.7790  -17.1370    3.7940 N.am   10  TYR10      -0.1973
     17  CA        17.1190  -17.9100    4.8470 C.3    10  TYR10       0.1639
     18  C         17.6470  -17.5770    6.2340 C.2    10  TYR10       0.2290
     19  O         16.8930  -17.4740    7.1840 O.2    10  TYR10      -0.2864
     20  CB        17.3060  -19.4200    4.6340 C.3    10  TYR10       0.0560
     21  CG        16.2850  -20.0730    3.7370 C.ar   10  TYR10      -0.0198
     22  CD1       16.5900  -20.4000    2.4170 C.ar   10  TYR10      -0.0009
     23  CD2       15.0060  -20.3620    4.2100 C.ar   10  TYR10      -0.0009
     24  CE1       15.6410  -20.9990    1.5870 C.ar   10  TYR10       0.0417
     25  CE2       14.0560  -20.9580    3.3950 C.ar   10  TYR10       0.0417
     26  CZ        14.3780  -21.2730    2.0870 C.ar   10  TYR10       0.1957
     27  OH        13.4280  -21.8550    1.2890 O.3    10  TYR10      -0.2866
     28  N          5.0000  -27.9840   10.6240 N.3    30  SER30      -0.1202
     29  CA         5.0040  -29.3210   10.0400 C.3    30  SER30       0.2020
     30  C          5.6230  -29.3420    8.6420 C.2    30  SER30       0.2619
     31  O          5.9620  -30.3920    8.1300 O.2    30  SER30      -0.2717
     32  CB         3.5710  -29.8490    9.9630 C.3    30  SER30       0.2103
     33  OG         2.7820  -29.0150    9.1290 O.3    30  SER30      -0.2182
     34  N          5.7610  -28.1700    8.0350 N.am   31  THR31      -0.1938
     35  CA         6.3190  -28.0860    6.6900 C.3    31  THR31       0.2028
     36  C          7.8270  -27.8490    6.6640 C.2    31  THR31       0.2642
     37  O          8.4210  -27.7640    5.5980 O.2    31  THR31      -0.2714
     38  CB         5.6250  -26.9700    5.8830 C.3    31  THR31       0.1808
     39  OG1        5.8490  -25.7090    6.5210 O.3    31  THR31      -0.2208
     40  CG2        4.1270  -27.2190    5.8100 C.3    31  THR31       0.0379
     41  N          8.4420  -27.7610    7.8420 N.am   32  GLU32      -0.1963
     42  CA         9.8810  -27.5220    7.9320 C.3    32  GLU32       0.1733
     43  C         10.6990  -28.7740    8.2220 C.2    32  GLU32       0.2616
     44  O         10.2380  -29.6990    8.8740 O.2    32  GLU32      -0.2715
     45  CB        10.1910  -26.4940    9.0250 C.3    32  GLU32       0.0429
     46  CG         9.5720  -25.1280    8.8220 C.3    32  GLU32       0.1163
     47  CD         9.7960  -24.2190   10.0160 C.2    32  GLU32       0.3649
     48  OE1        9.6100  -24.6930   11.1550 O.co2  32  GLU32      -0.2457
     49  OE2       10.1470  -23.0340    9.8220 O.co2  32  GLU32      -0.2457
     50  N         11.9270  -28.7740    7.7200 N.am   33  LEU33      -0.1963
     51  CA        12.8600  -29.8640    7.9430 C.3    33  LEU33       0.1728
     52  C         14.2000  -29.2620    8.3480 C.2    33  LEU33       0.2616
     53  O         14.6000  -29.3600    9.4930 O.2    33  LEU33      -0.2715
     54  CB        13.0330  -30.7130    6.6830 C.3    33  LEU33       0.0311
     55  CG        11.8810  -31.6550    6.3270 C.3    33  LEU33       0.0022
     56  CD1       12.1860  -32.3350    5.0060 C.3    33  LEU33       0.0001
     57  CD2       11.6820  -32.6820    7.4350 C.3    33  LEU33       0.0001
     58  N         14.8680  -28.6070    7.4000 N.am   34  ASN34      -0.1958
     59  CA        16.1750  -28.0200    7.6650 C.3    34  ASN34       0.1819
     60  C         16.2870  -26.5210    7.4060 C.2    34  ASN34       0.2621
     61  O         17.3610  -25.9590    7.5350 O.2    34  ASN34      -0.2715
     62  CB        17.2320  -28.7540    6.8400 C.3    34  ASN34       0.1195
     63  CG        17.2280  -30.2510    7.1000 C.2    34  ASN34       0.2630
     64  OD1       17.5530  -30.6980    8.1840 O.2    34  ASN34      -0.2716
     65  ND2       16.8410  -31.0260    6.0940 N.am   34  ASN34      -0.0877
     66  N         15.1760  -25.8860    7.0350 N.am   35  LYS35      -0.1964
     67  CA        15.1620  -24.4500    6.7620 C.3    35  LYS35       0.1713
     68  C         13.8900  -23.7890    7.2940 C.2    35  LYS35       0.2458
     69  O         12.8160  -24.3750    7.2580 O.2    35  LYS35      -0.2730
     70  CB        15.3000  -24.1940    5.2550 C.3    35  LYS35       0.0311
     71  CG        16.6940  -24.4890    4.7100 C.3    35  LYS35       0.0038
     72  CD        16.7770  -24.2950    3.1990 C.3    35  LYS35       0.0206
     73  CE        15.9560  -25.3390    2.4580 C.3    35  LYS35       0.1093
     74  NZ        16.4240  -26.7210    2.7740 N.3    35  LYS35      -0.1314
     75  N         14.0070  -22.5440    7.7890 N.am   36  PRO36      -0.2716
     76  CA        12.8720  -21.7980    8.3370 C.3    36  PRO36       0.1536
     77  C         11.8360  -21.3680    7.3090 C.2    36  PRO36       0.2598
     78  O         12.1750  -20.9240    6.2300 O.2    36  PRO36      -0.2715
     79  CB        13.5440  -20.6000    9.0030 C.3    36  PRO36       0.0310
     80  CG        14.6860  -20.3210    8.0770 C.3    36  PRO36       0.0237
     81  CD        15.2320  -21.7200    7.8070 C.3    36  PRO36       0.0939
     82  N         10.5640  -21.5110    7.6650 N.am   37  ALA37      -0.1964
     83  CA         9.4860  -21.0970    6.7780 C.3    37  ALA37       0.1728
     84  C          9.5420  -19.5780    6.7280 C.2    37  ALA37       0.2616
     85  O          9.7900  -18.9330    7.7350 O.2    37  ALA37      -0.2715
     86  CB         8.1510  -21.5500    7.3250 C.3    37  ALA37       0.0334
     87  N          9.3240  -19.0160    5.5450 N.am   38  MET38      -0.1963
     88  CA         9.3630  -17.5730    5.3930 C.3    38  MET38       0.1736
     89  C          8.1970  -17.0880    4.5470 C.2    38  MET38       0.2616
     90  O          7.6250  -17.8400    3.7710 O.2    38  MET38      -0.2715
     91  CB        10.6830  -17.1370    4.7540 C.3    38  MET38       0.0427
     92  CG        11.9120  -17.5470    5.5540 C.3    38  MET38       0.0599
     93  SD        13.4250  -16.8440    4.8720 S.3    38  MET38      -0.1393
     94  CE        13.4290  -15.2510    5.6590 C.3    38  MET38       0.0692
     95  N          7.8640  -15.8120    4.7070 N.am   39  ILE39      -0.1963
     96  CA         6.7560  -15.1890    3.9840 C.3    39  ILE39       0.1727
     97  C          7.2300  -13.8930    3.3480 C.2    39  ILE39       0.2616
     98  O          8.0110  -13.1620    3.9260 O.2    39  ILE39      -0.2715
     99  CB         5.6230  -14.8150    4.9290 C.3    39  ILE39       0.0290
    100  CG1        5.1420  -16.0570    5.6670 C.3    39  ILE39       0.0022
    101  CG2        4.4910  -14.1620    4.1480 C.3    39  ILE39       0.0023
    102  CD1        4.5380  -15.7210    7.0040 C.3    39  ILE39       0.0001
    103  N          6.7110  -13.5980    2.1640 N.am   40  TYR40      -0.1974
    104  CA         7.0920  -12.3860    1.4510 C.3    40  TYR40       0.1639
    105  C          6.2520  -11.1760    1.8670 C.2    40  TYR40       0.2290
    106  O          5.0360  -11.1900    1.7560 O.2    40  TYR40      -0.2864
    107  CB         6.9400  -12.5990   -0.0550 C.3    40  TYR40       0.0560
    108  CG         7.4530  -11.4470   -0.8900 C.ar   40  TYR40      -0.0198
    109  CD1        8.8230  -11.2130   -1.0270 C.ar   40  TYR40      -0.0009
    110  CD2        6.5690  -10.5920   -1.5460 C.ar   40  TYR40      -0.0009
    111  CE1        9.3010  -10.1590   -1.8030 C.ar   40  TYR40       0.0417
    112  CE2        7.0370   -9.5340   -2.3260 C.ar   40  TYR40       0.0417
    113  CZ         8.4030   -9.3250   -2.4480 C.ar   40  TYR40       0.1957
    114  OH         8.8710   -8.2880   -3.2190 O.3    40  TYR40      -0.2866
    115  N         11.7800  -10.6780    2.8370 N.3    48  TRP48      -0.1241
    116  CA        11.2920  -11.9110    3.4520 C.3    48  TRP48       0.1605
    117  C         11.4860  -11.9560    4.9660 C.2    48  TRP48       0.2264
    118  O         12.5070  -11.5410    5.4760 O.2    48  TRP48      -0.2867
    119  CB        12.0020  -13.1220    2.8420 C.3    48  TRP48       0.0550
    120  CG        11.7940  -13.2890    1.3700 C.ar   48  TRP48       0.0003
    121  CD1       12.4560  -12.6400    0.3690 C.ar   48  TRP48       0.0946
    122  CD2       10.8580  -14.1660    0.7330 C.ar   48  TRP48       0.0152
    123  NE1       11.9920  -13.0600   -0.8540 N.ar   48  TRP48      -0.2442
    124  CE2       11.0100  -13.9950   -0.6620 C.ar   48  TRP48       0.0810
    125  CE3        9.9030  -15.0780    1.2050 C.ar   48  TRP48       0.0012
    126  CZ2       10.2460  -14.7060   -1.5930 C.ar   48  TRP48       0.0191
    127  CZ3        9.1410  -15.7860    0.2810 C.ar   48  TRP48       0.0001
    128  CH2        9.3190  -15.5940   -1.1060 C.ar   48  TRP48       0.0015
    129  N          0.7760  -22.1590   12.7730 N.3    58  GLU58      -0.1245
    130  CA         0.7790  -22.8810   11.5070 C.3    58  GLU58       0.1567
    131  C         -0.4760  -22.6670   10.6670 C.2    58  GLU58       0.2260
    132  O         -0.3980  -22.4880    9.4640 O.2    58  GLU58      -0.2867
    133  CB         0.9810  -24.3680   11.7680 C.3    58  GLU58       0.0388
    134  CG         0.8130  -25.2190   10.5380 C.3    58  GLU58       0.1160
    135  CD         1.6200  -26.4800   10.6160 C.2    58  GLU58       0.3649
    136  OE1        1.1470  -27.5150   10.1050 O.co2  58  GLU58      -0.2457
    137  OE2        2.7340  -26.4270   11.1800 O.co2  58  GLU58      -0.2457
    138  N         -0.0860  -19.5470    8.8600 N.3    61  LEU61      -0.1231
    139  CA         0.9510  -19.6580    7.8410 C.3    61  LEU61       0.1693
    140  C          0.4360  -20.3890    6.6020 C.2    61  LEU61       0.2591
    141  O          0.6740  -19.9610    5.4890 O.2    61  LEU61      -0.2718
    142  CB         2.1700  -20.3980    8.4010 C.3    61  LEU61       0.0284
    143  CG         3.2720  -20.7060    7.3810 C.3    61  LEU61       0.0019
    144  CD1        3.8630  -19.4050    6.8550 C.3    61  LEU61       0.0001
    145  CD2        4.3470  -21.5660    8.0230 C.3    61  LEU61       0.0001
    146  N         -0.2720  -21.4960    6.8110 N.am   62  ILE62      -0.1980
    147  CA        -0.8080  -22.2690    5.6940 C.3    62  ILE62       0.1595
    148  C         -1.8150  -21.4370    4.8970 C.2    62  ILE62       0.2287
    149  O         -1.7800  -21.4190    3.6790 O.2    62  ILE62      -0.2864
    150  CB        -1.4870  -23.5740    6.1820 C.3    62  ILE62       0.0276
    151  CG1       -0.4740  -24.4470    6.9350 C.3    62  ILE62       0.0022
    152  CG2       -2.0540  -24.3400    4.9960 C.3    62  ILE62       0.0022
    153  CD1        0.7250  -24.8620    6.1030 C.3    62  ILE62       0.0001
    154  N         -1.9160  -18.2740    4.5990 N.3    64  LEU64      -0.1231
    155  CA        -1.1460  -17.2870    3.8570 C.3    64  LEU64       0.1693
    156  C         -0.5600  -17.9170    2.5990 C.2    64  LEU64       0.2593
    157  O         -0.5370  -17.2940    1.5520 O.2    64  LEU64      -0.2718
    158  CB        -0.0160  -16.7140    4.7240 C.3    64  LEU64       0.0284
    159  CG        -0.4150  -15.6440    5.7500 C.3    64  LEU64       0.0019
    160  CD1        0.7460  -15.3570    6.6910 C.3    64  LEU64       0.0001
    161  CD2       -0.8470  -14.3740    5.0250 C.3    64  LEU64       0.0001
    162  N         -0.1020  -19.1650    2.7040 N.am   65  SER65      -0.1938
    163  CA         0.4910  -19.8390    1.5520 C.3    65  SER65       0.2055
    164  C         -0.5590  -20.2220    0.5110 C.2    65  SER65       0.2643
    165  O         -0.2470  -20.3650   -0.6540 O.2    65  SER65      -0.2714
    166  CB         1.2610  -21.0900    1.9920 C.3    65  SER65       0.2130
    167  OG         0.3850  -22.1230    2.4060 O.3    65  SER65      -0.2179
    168  N         -1.8040  -20.3840    0.9540 N.am   66  GLU66      -0.1963
    169  CA        -2.9020  -20.7390    0.0580 C.3    66  GLU66       0.1733
    170  C         -3.5130  -19.4880   -0.5650 C.2    66  GLU66       0.2617
    171  O         -4.0100  -19.5230   -1.6740 O.2    66  GLU66      -0.2715
    172  CB        -4.0020  -21.4880    0.8170 C.3    66  GLU66       0.0429
    173  CG        -3.6170  -22.8530    1.3600 C.3    66  GLU66       0.1163
    174  CD        -4.7350  -23.4760    2.1900 C.2    66  GLU66       0.3649
    175  OE1       -5.1350  -22.8640    3.2030 O.co2  66  GLU66      -0.2457
    176  OE2       -5.2150  -24.5710    1.8290 O.co2  66  GLU66      -0.2457
    177  N         -3.4640  -18.3830    0.1720 N.am   67  GLY67      -0.1940
    178  CA        -4.0350  -17.1360   -0.3070 C.3    67  GLY67       0.2014
    179  C         -3.2900  -16.4760   -1.4490 C.2    67  GLY67       0.2640
    180  O         -2.1990  -16.8840   -1.8110 O.2    67  GLY67      -0.2714
    181  N         -3.8940  -15.4310   -2.0050 N.am   68  SER68      -0.1935
    182  CA        -3.2960  -14.7060   -3.1140 C.3    68  SER68       0.2055
    183  C         -3.0960  -13.2150   -2.8660 C.2    68  SER68       0.2643
    184  O         -2.4640  -12.5510   -3.6630 O.2    68  SER68      -0.2714
    185  CB        -4.1380  -14.8940   -4.3750 C.3    68  SER68       0.2130
    186  OG        -4.0940  -16.2380   -4.8130 O.3    68  SER68      -0.2179
    187  N         -3.6300  -12.6850   -1.7680 N.am   69  ASN69      -0.1957
    188  CA        -3.4510  -11.2620   -1.5150 C.3    69  ASN69       0.1819
    189  C         -2.0900  -10.9750   -0.8740 C.2    69  ASN69       0.2621
    190  O         -1.3730  -11.8860   -0.4840 O.2    69  ASN69      -0.2715
    191  CB        -4.6010  -10.6960   -0.6600 C.3    69  ASN69       0.1195
    192  CG        -4.3310  -10.7700    0.8350 C.2    69  ASN69       0.2630
    193  OD1       -4.7670   -9.9090    1.5870 O.2    69  ASN69      -0.2716
    194  ND2       -3.6270  -11.8070    1.2670 N.am   69  ASN69      -0.0877
    195  N         -1.7450   -9.6950   -0.7910 N.am   70  LYS70      -0.1963
    196  CA        -0.4670   -9.2610   -0.2330 C.3    70  LYS70       0.1728
    197  C         -0.3460   -9.3330    1.2780 C.2    70  LYS70       0.2616
    198  O         -1.2650   -8.9920    2.0080 O.2    70  LYS70      -0.2715
    199  CB        -0.1750   -7.8250   -0.6550 C.3    70  LYS70       0.0311
    200  CG         0.2430   -7.6430   -2.0910 C.3    70  LYS70       0.0038
    201  CD         0.1540   -6.1740   -2.4380 C.3    70  LYS70       0.0206
    202  CE         0.9480   -5.8310   -3.6700 C.3    70  LYS70       0.1093
    203  NZ         0.7950   -4.3860   -3.9810 N.3    70  LYS70      -0.1314
    204  N          0.8260   -9.7590    1.7320 N.am   71  TYR71      -0.1974
    205  CA         1.1040   -9.8450    3.1540 C.3    71  TYR71       0.1639
    206  C          2.0810   -8.7470    3.5520 C.2    71  TYR71       0.2290
    207  O          2.9890   -8.4150    2.8070 O.2    71  TYR71      -0.2864
    208  CB         1.6980  -11.2150    3.5080 C.3    71  TYR71       0.0560
    209  CG         2.2800  -11.2890    4.9060 C.ar   71  TYR71      -0.0198
    210  CD1        3.6110  -10.9440    5.1480 C.ar   71  TYR71      -0.0009
    211  CD2        1.4930  -11.6670    5.9920 C.ar   71  TYR71      -0.0009
    212  CE1        4.1410  -10.9730    6.4320 C.ar   71  TYR71       0.0417
    213  CE2        2.0100  -11.6970    7.2810 C.ar   71  TYR71       0.0417
    214  CZ         3.3340  -11.3460    7.4960 C.ar   71  TYR71       0.1957
    215  OH         3.8410  -11.3440    8.7750 O.3    71  TYR71      -0.2866
@<TRIPOS>BOND
     1   186   185    1
     2   185   182    1
     3   203   202    1
     4   202   201    1
     5   184   183    2
     6   114   113    1
     7   182   183    1
     8   182   181    1
     9   183   187   am
    10   113   112   ar
    11   113   111   ar
    12   201   200    1
    13   112   110   ar
    14   200   199    1
    15   181   179   am
    16   180   179    2
    17   111   109   ar
    18   187   188    1
    19   171   170    2
    20   126   128   ar
    21   126   124   ar
    22   110   108   ar
    23   188   189    1
    24   188   191    1
    25   179   178    1
    26   128   127   ar
    27   109   108   ar
    28   108   107    1
    29   189   195   am
    30   189   190    2
    31   123   124   ar
    32   123   121   ar
    33   195   196    1
    34   124   122   ar
    35   191   192    1
    36   199   196    1
    37   165   164    2
    38   170   169    1
    39   170   177   am
    40     5     6    1
    41     5     2    1
    42     7     6   ar
    43     7     9   ar
    44   178   177    1
    45     6     8   ar
    46   196   197    1
    47     9    11   ar
    48   107   104    1
    49   169   172    1
    50   169   168    1
    51     8    10   ar
    52   127   125   ar
    53    11    10   ar
    54   121   120   ar
    55     4     3    2
    56     1     2    1
    57   164   168   am
    58   164   163    1
    59     2     3    1
    60   122   125   ar
    61   122   120   ar
    62   172   173    1
    63   192   194   am
    64   192   193    2
    65     3    12   am
    66   197   204   am
    67   197   198    2
    68    27    26    1
    69   173   174    1
    70   120   119    1
    71   104   105    1
    72   104   103    1
    73   157   156    2
    74   163   166    1
    75   163   162    1
    76    24    26   ar
    77    24    22   ar
    78   204   205    1
    79   106   105    2
    80   176   174   ar
    81   166   167    1
    82    12    13    1
    83    26    25   ar
    84   103    97   am
    85   174   175   ar
    86    22    21   ar
    87    13    14    1
    88    73    74    1
    89    73    72    1
    90   156   162   am
    91   156   155    1
    92   207   206    2
    93   115   116    1
    94   119   116    1
    95   205   208    1
    96   205   206    1
    97    72    71    1
    98    97    98    2
    99    97    96    1
   100    25    23   ar
   101   116   117    1
   102   208   209    1
   103    14    16   am
   104    14    15    2
   105   149   148    2
   106    21    23   ar
   107    21    20    1
   108    90    89    2
   109    16    17    1
   110   155   154    1
   111   155   158    1
   112    96    95    1
   113    96    99    1
   114   101    99    1
   115    89    95   am
   116    89    88    1
   117    20    17    1
   118    71    70    1
   119   158   159    1
   120    91    88    1
   121    91    92    1
   122    17    18    1
   123    93    92    1
   124    93    94    1
   125   148   147    1
   126   209   210   ar
   127   209   211   ar
   128    99   100    1
   129   117   118    2
   130   152   150    1
   131    56    55    1
   132   161   159    1
   133   210   212   ar
   134    70    67    1
   135    88    87    1
   136   141   140    2
   137    87    84   am
   138    37    36    2
   139   100   102    1
   140   147   150    1
   141   147   146    1
   142   159   160    1
   143    40    38    1
   144    38    39    1
   145    38    35    1
   146   211   213   ar
   147    65    63   am
   148   153   151    1
   149   150   151    1
   150    78    77    2
   151    18    19    2
   152    55    54    1
   153    55    57    1
   154   212   214   ar
   155   140   146   am
   156   140   139    1
   157    36    35    1
   158    36    41   am
   159    54    51    1
   160    35    34    1
   161    84    83    1
   162    84    85    2
   163    67    66    1
   164    67    68    1
   165    83    86    1
   166    83    82    1
   167    62    63    1
   168    62    59    1
   169   144   143    1
   170    66    60   am
   171    63    64    2
   172    69    68    2
   173   213   214   ar
   174    68    75   am
   175    77    82   am
   176    77    76    1
   177   143   145    1
   178   143   142    1
   179    58    59    1
   180    58    52   am
   181    60    61    2
   182    60    59    1
   183   214   215    1
   184    50    51    1
   185    50    43   am
   186    75    81    1
   187    75    76    1
   188    81    80    1
   189   139   142    1
   190   139   138    1
   191    41    42    1
   192    42    43    1
   193    42    45    1
   194    51    52    1
   195    34    30   am
   196    80    79    1
   197    31    30    2
   198    43    44    2
   199    76    79    1
   200    52    53    2
   201    30    29    1
   202    46    45    1
   203    46    47    1
   204    33    32    1
   205   132   131    2
   206    49    47   ar
   207    32    29    1
   208    47    48   ar
   209    29    28    1
   210   136   135   ar
   211   134   135    1
   212   134   133    1
   213   135   137   ar
   214   131   130    1
   215   130   133    1
   216   130   129    1
