@<TRIPOS>MOLECULE
tmp/2v88B00.pdb
 152 153 0 0 0
SMALL
GASTEIGER

@<TRIPOS>ATOM
      1  N          6.4360   -9.0160   -8.2180 N.3     4  PHE4       -0.1227
      2  CA         5.1710   -9.5130   -8.7180 C.3     4  PHE4        0.1736
      3  C          5.3250  -10.2370  -10.0880 C.2     4  PHE4        0.2596
      4  O          4.3740  -10.7170  -10.6040 O.2     4  PHE4       -0.2718
      5  CB         4.1050   -8.4110   -8.6760 C.3     4  PHE4        0.0547
      6  CG         3.9780   -7.8260   -7.3110 C.ar    4  PHE4       -0.0202
      7  CD1        4.7000   -6.7220   -6.9680 C.ar    4  PHE4       -0.0042
      8  CD2        3.1040   -8.3640   -6.3900 C.ar    4  PHE4       -0.0042
      9  CE1        4.5810   -6.2230   -5.7440 C.ar    4  PHE4       -0.0003
     10  CE2        2.9840   -7.8630   -5.1610 C.ar    4  PHE4       -0.0003
     11  CZ         3.6680   -6.7960   -4.8340 C.ar    4  PHE4       -0.0000
     12  N          6.5400  -10.3570  -10.6260 N.am    5  GLY5       -0.1942
     13  CA         6.7450  -11.1070  -11.8650 C.3     5  GLY5        0.2014
     14  C          6.5730  -10.5240  -13.2600 C.2     5  GLY5        0.2638
     15  O          6.9970  -11.1560  -14.2130 O.2     5  GLY5       -0.2714
     16  N          5.9680   -9.3480  -13.4060 N.am    6  TYR6       -0.1973
     17  CA         5.7750   -8.7790  -14.7380 C.3     6  TYR6        0.1639
     18  C          6.9340   -7.9330  -15.2250 C.2     6  TYR6        0.2290
     19  O          7.4100   -8.0940  -16.3450 O.2     6  TYR6       -0.2864
     20  CB         4.5050   -7.9250  -14.7880 C.3     6  TYR6        0.0560
     21  CG         3.2320   -8.7200  -14.6970 C.ar    6  TYR6       -0.0198
     22  CD1        2.6200   -8.9630  -13.4680 C.ar    6  TYR6       -0.0009
     23  CD2        2.6400   -9.2410  -15.8410 C.ar    6  TYR6       -0.0009
     24  CE1        1.4410   -9.7070  -13.3880 C.ar    6  TYR6        0.0417
     25  CE2        1.4680   -9.9870  -15.7730 C.ar    6  TYR6        0.0417
     26  CZ         0.8740  -10.2140  -14.5490 C.ar    6  TYR6        0.1957
     27  OH        -0.2850  -10.9480  -14.4960 O.3     6  TYR6       -0.2866
     28  N         -5.9780   -8.1360  -24.9460 N.3    27  THR27      -0.1203
     29  CA        -6.2570   -8.5800  -23.5840 C.3    27  THR27       0.1994
     30  C         -5.5170   -7.8050  -22.5000 C.2    27  THR27       0.2618
     31  O         -5.8460   -7.9250  -21.3290 O.2    27  THR27      -0.2717
     32  CB        -5.9120  -10.0680  -23.4030 C.3    27  THR27       0.1784
     33  OG1       -4.5280  -10.2790  -23.7010 O.3    27  THR27      -0.2211
     34  CG2       -6.7600  -10.9250  -24.3150 C.3    27  THR27       0.0376
     35  N         -4.5270   -7.0070  -22.8890 N.am   28  GLU28      -0.1965
     36  CA        -3.7460   -6.2440  -21.9190 C.3    28  GLU28       0.1733
     37  C         -4.3470   -4.8990  -21.5150 C.2    28  GLU28       0.2616
     38  O         -5.0180   -4.2290  -22.3030 O.2    28  GLU28      -0.2715
     39  CB        -2.3320   -5.9900  -22.4550 C.3    28  GLU28       0.0429
     40  CG        -1.5450   -7.2310  -22.8040 C.3    28  GLU28       0.1163
     41  CD        -0.2860   -6.9020  -23.5740 C.2    28  GLU28       0.3649
     42  OE1       -0.3780   -6.0930  -24.5220 O.co2  28  GLU28      -0.2457
     43  OE2        0.7890   -7.4520  -23.2440 O.co2  28  GLU28      -0.2457
     44  N         -4.0790   -4.5160  -20.2690 N.am   29  LEU29      -0.1963
     45  CA        -4.5310   -3.2460  -19.7260 C.3    29  LEU29       0.1728
     46  C         -3.3130   -2.4620  -19.2400 C.2    29  LEU29       0.2616
     47  O         -2.8530   -1.5510  -19.9250 O.2    29  LEU29      -0.2715
     48  CB        -5.5300   -3.4750  -18.5890 C.3    29  LEU29       0.0311
     49  CG        -6.8920   -3.9460  -19.1120 C.3    29  LEU29       0.0022
     50  CD1       -7.8230   -4.2880  -17.9570 C.3    29  LEU29       0.0001
     51  CD2       -7.4990   -2.8480  -19.9830 C.3    29  LEU29       0.0001
     52  N         -2.7760   -2.8210  -18.0750 N.am   30  ASN30      -0.1958
     53  CA        -1.6040   -2.1180  -17.5650 C.3    30  ASN30       0.1819
     54  C         -0.4270   -3.0560  -17.2900 C.2    30  ASN30       0.2621
     55  O          0.5880   -2.6460  -16.7260 O.2    30  ASN30      -0.2715
     56  CB        -1.9700   -1.3120  -16.3010 C.3    30  ASN30       0.1195
     57  CG        -2.3170   -2.1920  -15.1170 C.2    30  ASN30       0.2630
     58  OD1       -2.6510   -3.3560  -15.2700 O.2    30  ASN30      -0.2716
     59  ND2       -2.2480   -1.6200  -13.9220 N.am   30  ASN30      -0.0877
     60  N         -0.5670   -4.3120  -17.7060 N.am   31  LYS31      -0.1964
     61  CA         0.4820   -5.3130  -17.5150 C.3    31  LYS31       0.1713
     62  C          0.6930   -6.1550  -18.7630 C.2    31  LYS31       0.2458
     63  O         -0.2570   -6.5320  -19.4240 O.2    31  LYS31      -0.2730
     64  CB         0.1210   -6.2510  -16.3810 C.3    31  LYS31       0.0311
     65  CG        -0.0240   -5.5820  -15.0570 C.3    31  LYS31       0.0038
     66  CD        -0.6340   -6.5620  -14.0810 C.3    31  LYS31       0.0206
     67  CE        -1.1670   -5.8530  -12.8640 C.3    31  LYS31       0.1093
     68  NZ        -0.1110   -5.6310  -11.8440 N.3    31  LYS31      -0.1314
     69  N          1.9550   -6.4750  -19.0830 N.am   32  PRO32      -0.2716
     70  CA         2.2510   -7.2850  -20.2670 C.3    32  PRO32       0.1536
     71  C          1.7800   -8.7320  -20.1300 C.2    32  PRO32       0.2598
     72  O          1.9050   -9.3350  -19.0620 O.2    32  PRO32      -0.2715
     73  CB         3.7730   -7.1680  -20.3880 C.3    32  PRO32       0.0310
     74  CG         4.2110   -6.9890  -18.9540 C.3    32  PRO32       0.0237
     75  CD         3.1950   -6.0090  -18.4380 C.3    32  PRO32       0.0939
     76  N          1.2270   -9.2770  -21.2140 N.am   33  ALA33      -0.1964
     77  CA         0.7550  -10.6570  -21.2230 C.3    33  ALA33       0.1728
     78  C          1.9820  -11.5620  -21.1250 C.2    33  ALA33       0.2616
     79  O          3.0290  -11.2560  -21.6930 O.2    33  ALA33      -0.2715
     80  CB        -0.0130  -10.9460  -22.5060 C.3    33  ALA33       0.0334
     81  N          1.8530  -12.6690  -20.4000 N.am   34  MET34      -0.1963
     82  CA         2.9780  -13.5800  -20.2300 C.3    34  MET34       0.1736
     83  C          2.5530  -15.0310  -20.3970 C.2    34  MET34       0.2616
     84  O          1.3710  -15.3490  -20.3490 O.2    34  MET34      -0.2715
     85  CB         3.6220  -13.3730  -18.8430 C.3    34  MET34       0.0427
     86  CG         4.2100  -11.9750  -18.6300 C.3    34  MET34       0.0599
     87  SD         4.9830  -11.7150  -16.9970 S.3    34  MET34      -0.1393
     88  CE         6.6440  -12.3290  -17.3200 C.3    34  MET34       0.0692
     89  N          3.5350  -15.9020  -20.5970 N.am   35  ILE35      -0.1963
     90  CA         3.2780  -17.3220  -20.7730 C.3    35  ILE35       0.1727
     91  C          4.3590  -18.1210  -20.0460 C.2    35  ILE35       0.2616
     92  O          5.5120  -17.7240  -20.0030 O.2    35  ILE35      -0.2715
     93  CB         3.2360  -17.6880  -22.2810 C.3    35  ILE35       0.0290
     94  CG1        2.8780  -19.1640  -22.4560 C.3    35  ILE35       0.0022
     95  CG2        4.5680  -17.3840  -22.9330 C.3    35  ILE35       0.0023
     96  CD1        2.4170  -19.5040  -23.8630 C.3    35  ILE35       0.0001
     97  N          3.9640  -19.2540  -19.4790 N.am   36  TYR36      -0.1974
     98  CA         4.8690  -20.0940  -18.7090 C.3    36  TYR36       0.1639
     99  C          5.6660  -21.1250  -19.5030 C.2    36  TYR36       0.2290
    100  O          5.1030  -21.9220  -20.2350 O.2    36  TYR36      -0.2864
    101  CB         4.0710  -20.8140  -17.6150 C.3    36  TYR36       0.0560
    102  CG         4.9150  -21.5870  -16.6290 C.ar   36  TYR36      -0.0198
    103  CD1        5.7020  -20.9250  -15.6820 C.ar   36  TYR36      -0.0009
    104  CD2        4.9040  -22.9840  -16.6210 C.ar   36  TYR36      -0.0009
    105  CE1        6.4510  -21.6390  -14.7450 C.ar   36  TYR36       0.0417
    106  CE2        5.6530  -23.7060  -15.6930 C.ar   36  TYR36       0.0417
    107  CZ         6.4190  -23.0300  -14.7560 C.ar   36  TYR36       0.1957
    108  OH         7.1260  -23.7420  -13.8120 O.3    36  TYR36      -0.2866
    109  N          8.7740  -17.4740  -16.4360 N.3    44  TRP44      -0.1241
    110  CA         7.7940  -16.7540  -17.2300 C.3    44  TRP44       0.1605
    111  C          8.4480  -15.7570  -18.1770 C.2    44  TRP44       0.2264
    112  O          9.3800  -15.0620  -17.7960 O.2    44  TRP44      -0.2867
    113  CB         6.8220  -15.9960  -16.3190 C.3    44  TRP44       0.0550
    114  CG         5.9340  -16.8560  -15.4800 C.ar   44  TRP44       0.0003
    115  CD1        6.2500  -17.4620  -14.2950 C.ar   44  TRP44       0.0946
    116  CD2        4.5620  -17.1740  -15.7410 C.ar   44  TRP44       0.0152
    117  NE1        5.1540  -18.1350  -13.8010 N.ar   44  TRP44      -0.2442
    118  CE2        4.1060  -17.9790  -14.6700 C.ar   44  TRP44       0.0810
    119  CE3        3.6740  -16.8600  -16.7810 C.ar   44  TRP44       0.0012
    120  CZ2        2.7960  -18.4680  -14.6030 C.ar   44  TRP44       0.0191
    121  CZ3        2.3690  -17.3470  -16.7140 C.ar   44  TRP44       0.0001
    122  CH2        1.9460  -18.1460  -15.6320 C.ar   44  TRP44       0.0015
    123  N         -1.0590  -16.6440  -29.0750 N.3    57  LEU57      -0.1231
    124  CA        -1.0510  -16.5380  -27.6210 C.3    57  LEU57       0.1693
    125  C         -2.3660  -17.0560  -27.0690 C.2    57  LEU57       0.2591
    126  O         -2.3850  -17.9010  -26.1820 O.2    57  LEU57      -0.2718
    127  CB        -0.8490  -15.0770  -27.1990 C.3    57  LEU57       0.0284
    128  CG        -0.8810  -14.7560  -25.6990 C.3    57  LEU57       0.0019
    129  CD1        0.1230  -15.6290  -24.9610 C.3    57  LEU57       0.0001
    130  CD2       -0.5670  -13.2770  -25.4860 C.3    57  LEU57       0.0001
    131  N         -3.4660  -16.5450  -27.6130 N.am   58  ILE58      -0.1980
    132  CA        -4.7970  -16.9520  -27.1790 C.3    58  ILE58       0.1595
    133  C         -4.9820  -18.4600  -27.3270 C.2    58  ILE58       0.2287
    134  O         -5.5280  -19.1080  -26.4420 O.2    58  ILE58      -0.2864
    135  CB        -5.8930  -16.2310  -27.9950 C.3    58  ILE58       0.0276
    136  CG1       -5.7500  -14.7100  -27.8420 C.3    58  ILE58       0.0022
    137  CG2       -7.2670  -16.6880  -27.5410 C.3    58  ILE58       0.0022
    138  CD1       -5.7810  -14.2110  -26.4070 C.3    58  ILE58       0.0001
    139  N         -2.7000  -20.8710  -27.3380 N.3    60  LEU60      -0.1231
    140  CA        -1.9370  -21.4620  -26.2470 C.3    60  LEU60       0.1693
    141  C         -2.6440  -21.3320  -24.8990 C.2    60  LEU60       0.2592
    142  O         -2.7610  -22.2950  -24.1700 O.2    60  LEU60      -0.2718
    143  CB        -0.5480  -20.8240  -26.1760 C.3    60  LEU60       0.0284
    144  CG         0.4610  -21.2320  -27.2600 C.3    60  LEU60       0.0019
    145  CD1        1.6540  -20.5060  -27.2230 C.3    60  LEU60       0.0001
    146  CD2        0.8030  -22.6080  -27.1040 C.3    60  LEU60       0.0001
    147  N         -3.0840  -20.1300  -24.5670 N.am   61  SER61      -0.1952
    148  CA        -3.8130  -19.9230  -23.3370 C.3    61  SER61       0.1924
    149  C         -5.1030  -20.7170  -23.1020 C.2    61  SER61       0.2314
    150  O         -5.4200  -20.9220  -22.0040 O.2    61  SER61      -0.2863
    151  CB        -4.1120  -18.4350  -23.1690 C.3    61  SER61       0.2116
    152  OG        -5.2250  -18.0780  -23.9080 O.3    61  SER61      -0.2180
@<TRIPOS>BOND
     1   123   124    1
     2   135   136    1
     3   135   137    1
     4   135   132    1
     5   136   138    1
     6   124   127    1
     7   124   125    1
     8   131   132    1
     9   131   125   am
    10   139   140    1
    11   133   132    1
    12   133   134    2
    13   144   145    1
    14   144   146    1
    15   144   143    1
    16   127   128    1
    17   125   126    2
    18   140   143    1
    19   140   141    1
    20   128   130    1
    21   128   129    1
    22    28    29    1
    23   141   147   am
    24   141   142    2
    25   147   148    1
    26    42    41   ar
    27    34    32    1
    28   152   151    1
    29    96    94    1
    30    33    32    1
    31    29    32    1
    32    29    30    1
    33    41    43   ar
    34    41    40    1
    35   148   151    1
    36   148   149    1
    37   149   150    2
    38    95    93    1
    39    35    30   am
    40    35    36    1
    41    40    39    1
    42    80    77    1
    43    30    31    2
    44    94    93    1
    45    39    36    1
    46    38    37    2
    47    93    90    1
    48    36    37    1
    49    79    78    2
    50    37    44   am
    51    77    76    1
    52    77    78    1
    53    76    71   am
    54    78    81   am
    55    90    89    1
    56    90    91    1
    57    89    83   am
    58    81    82    1
    59    83    84    2
    60    83    82    1
    61    73    70    1
    62    73    74    1
    63    44    45    1
    64    70    71    1
    65    70    69    1
    66   100    99    2
    67    82    85    1
    68    71    72    2
    69    91    92    2
    70    91    97   am
    71    51    49    1
    72    47    46    2
    73    45    46    1
    74    45    48    1
    75    99    98    1
    76    97    98    1
    77    63    62    2
    78    46    52   am
    79    49    48    1
    80    49    50    1
    81    69    62   am
    82    69    75    1
    83    74    75    1
    84    85    86    1
    85    62    61    1
    86    98   101    1
    87    86    87    1
    88   111   112    2
    89   111   110    1
    90    52    53    1
    91    60    61    1
    92    60    54   am
    93   101   102    1
    94    53    54    1
    95    53    56    1
    96    61    64    1
    97    88    87    1
    98    54    55    2
    99   110   109    1
   100   110   113    1
   101   119   121   ar
   102   119   116   ar
   103   121   122   ar
   104   102   104   ar
   105   102   103   ar
   106   104   106   ar
   107    64    65    1
   108    19    18    2
   109   113   114    1
   110    56    57    1
   111    23    25   ar
   112    23    21   ar
   113    25    26   ar
   114   116   114   ar
   115   116   118   ar
   116   106   107   ar
   117   103   105   ar
   118   122   120   ar
   119   114   115   ar
   120    58    57    2
   121    18    17    1
   122    57    59   am
   123    65    66    1
   124    20    17    1
   125    20    21    1
   126   107   105   ar
   127   107   108    1
   128    17    16    1
   129    21    22   ar
   130   118   120   ar
   131   118   117   ar
   132    26    27    1
   133    26    24   ar
   134   115   117   ar
   135    15    14    2
   136    66    67    1
   137    22    24   ar
   138    16    14   am
   139    14    13    1
   140    67    68    1
   141    13    12    1
   142    12     3   am
   143     4     3    2
   144     3     2    1
   145     2     5    1
   146     2     1    1
   147     5     6    1
   148     6     7   ar
   149     6     8   ar
   150     7     9   ar
   151     8    10   ar
   152     9    11   ar
   153    10    11   ar
