@<TRIPOS>MOLECULE
tmp/2v8fB00.pdb
 138 136 0 0 0
SMALL
GASTEIGER

@<TRIPOS>ATOM
      1  N         -3.7440  -13.7470   51.0410 N.3     2  GLY2       -0.1210
      2  CA        -3.9450  -12.4270   50.4660 C.3     2  GLY2        0.1956
      3  C         -2.7990  -11.4790   50.7220 C.2     2  GLY2        0.2611
      4  O         -1.6180  -11.8550   50.4850 O.2     2  GLY2       -0.2717
      5  N         -3.0740  -10.2620   51.2160 N.am    3  TRP3       -0.1976
      6  CA        -1.9830   -9.3250   51.3780 C.3     3  TRP3        0.1640
      7  C         -1.0760   -9.6860   52.5540 C.2     3  TRP3        0.2290
      8  O          0.0390   -9.2070   52.6950 O.2     3  TRP3       -0.2864
      9  CB        -2.4840   -7.8670   51.4860 C.3     3  TRP3        0.0576
     10  CG        -2.9390   -7.3280   50.1700 C.ar    3  TRP3        0.0006
     11  CD1       -4.2370   -7.2470   49.7170 C.ar    3  TRP3        0.0946
     12  CD2       -2.1310   -6.7920   49.1140 C.ar    3  TRP3        0.0152
     13  NE1       -4.2780   -6.7150   48.4610 N.ar    3  TRP3       -0.2442
     14  CE2       -2.9850   -6.4240   48.0780 C.ar    3  TRP3        0.0810
     15  CE3       -0.7330   -6.6050   48.9360 C.ar    3  TRP3        0.0012
     16  CZ2       -2.5550   -5.8630   46.8680 C.ar    3  TRP3        0.0191
     17  CZ3       -0.3190   -6.0460   47.7520 C.ar    3  TRP3        0.0001
     18  CH2       -1.2310   -5.6800   46.7520 C.ar    3  TRP3        0.0015
     19  N          0.5900  -12.2990   52.7970 N.3     5  SER5       -0.1202
     20  CA         1.8120  -12.8920   52.2700 C.3     5  SER5        0.2020
     21  C          2.8620  -11.8070   51.9910 C.2     5  SER5        0.2618
     22  O          4.0520  -12.0610   52.1570 O.2     5  SER5       -0.2717
     23  CB         1.5950  -13.6600   50.9730 C.3     5  SER5        0.2103
     24  OG         0.7770  -14.7470   51.1260 O.3     5  SER5       -0.2182
     25  N          2.4080  -10.6280   51.6120 N.am    6  TYR6       -0.1975
     26  CA         3.3280   -9.5150   51.3900 C.3     6  TYR6        0.1639
     27  C          3.8870   -9.0260   52.7060 C.2     6  TYR6        0.2290
     28  O          5.0870   -8.7480   52.8050 O.2     6  TYR6       -0.2864
     29  CB         2.5510   -8.4190   50.5980 C.3     6  TYR6        0.0560
     30  CG         2.5330   -8.7440   49.1470 C.ar    6  TYR6       -0.0198
     31  CD1        3.4710   -8.2870   48.2440 C.ar    6  TYR6       -0.0009
     32  CD2        1.5600   -9.6240   48.6410 C.ar    6  TYR6       -0.0009
     33  CE1        3.4520   -8.6020   46.9020 C.ar    6  TYR6        0.0417
     34  CE2        1.5280   -9.9670   47.2960 C.ar    6  TYR6        0.0417
     35  CZ         2.4710   -9.4630   46.4370 C.ar    6  TYR6        0.1957
     36  OH         2.5200   -9.7760   45.0980 O.3     6  TYR6       -0.2866
     37  N          6.5430  -11.5440   53.6120 N.3     9  ASN9       -0.1240
     38  CA         7.7830  -11.3850   52.8750 C.3     9  ASN9        0.1653
     39  C          8.6010  -10.2520   53.4630 C.2     9  ASN9        0.2266
     40  O          9.8120  -10.3450   53.5260 O.2     9  ASN9       -0.2867
     41  CB         7.4960  -11.1310   51.4170 C.3     9  ASN9        0.1155
     42  CG         7.3790  -12.3880   50.6050 C.2     9  ASN9        0.2627
     43  OD1        7.0200  -13.4400   51.1220 O.2     9  ASN9       -0.2716
     44  ND2        7.7470  -12.2630   49.3240 N.am    9  ASN9       -0.0877
     45  N         -9.3860    2.5040   48.3720 N.3    26  ALA26      -0.1245
     46  CA        -9.3740    1.7850   49.6110 C.3    26  ALA26       0.1562
     47  C         -8.2750    2.3760   50.4790 C.2    26  ALA26       0.2260
     48  O         -7.2360    1.7730   50.6950 O.2    26  ALA26      -0.2867
     49  CB        -9.1230    0.2850   49.3840 C.3    26  ALA26       0.0290
     50  N         -6.9160    2.8820   53.4880 N.3    28  TYR28      -0.1227
     51  CA        -6.8500    2.3350   54.8220 C.3    28  TYR28       0.1736
     52  C         -5.8630    1.1540   54.7870 C.2    28  TYR28       0.2595
     53  O         -5.4030    0.7270   53.7390 O.2    28  TYR28      -0.2718
     54  CB        -8.2450    1.9340   55.2780 C.3    28  TYR28       0.0548
     55  CG        -9.0710    1.1060   54.3770 C.ar   28  TYR28      -0.0200
     56  CD1       -8.8920   -0.2810   54.3650 C.ar   28  TYR28      -0.0009
     57  CD2      -10.0430    1.6790   53.5610 C.ar   28  TYR28      -0.0009
     58  CE1       -9.7010   -1.0350   53.5180 C.ar   28  TYR28       0.0417
     59  CE2      -10.8370    0.9100   52.7220 C.ar   28  TYR28       0.0417
     60  CZ       -10.6460   -0.4500   52.7060 C.ar   28  TYR28       0.1957
     61  OH       -11.4720   -1.1590   51.8620 O.3    28  TYR28      -0.2866
     62  N         -5.5540    0.6200   55.9610 N.am   29  VAL29      -0.1966
     63  CA        -4.6390   -0.5050   56.0670 C.3    29  VAL29       0.1727
     64  C         -5.2700   -1.7770   55.4930 C.2    29  VAL29       0.2616
     65  O         -6.3820   -2.1540   55.8400 O.2    29  VAL29      -0.2715
     66  CB        -4.2900   -0.7410   57.5360 C.3    29  VAL29       0.0290
     67  CG1       -3.4020   -1.9780   57.6820 C.3    29  VAL29       0.0023
     68  CG2       -3.6440    0.5220   58.1320 C.3    29  VAL29       0.0023
     69  N         -4.5460   -2.4390   54.6040 N.am   30  TRP30      -0.1974
     70  CA        -4.9960   -3.7000   53.9950 C.3    30  TRP30       0.1640
     71  C         -4.5030   -4.9280   54.7250 C.2    30  TRP30       0.2290
     72  O         -5.2160   -5.9170   54.8490 O.2    30  TRP30      -0.2864
     73  CB        -4.5340   -3.7990   52.5530 C.3    30  TRP30       0.0576
     74  CG        -5.1240   -2.7300   51.6430 C.ar   30  TRP30       0.0006
     75  CD1       -5.9560   -1.7210   51.9830 C.ar   30  TRP30       0.0946
     76  CD2       -4.9280   -2.6240   50.2310 C.ar   30  TRP30       0.0152
     77  NE1       -6.2920   -0.9630   50.8990 N.ar   30  TRP30      -0.2442
     78  CE2       -5.6630   -1.5020   49.7930 C.ar   30  TRP30       0.0810
     79  CE3       -4.2020   -3.3610   49.2860 C.ar   30  TRP30       0.0012
     80  CZ2       -5.6910   -1.0800   48.4610 C.ar   30  TRP30       0.0191
     81  CZ3       -4.2310   -2.9660   47.9790 C.ar   30  TRP30       0.0001
     82  CH2       -4.9590   -1.8430   47.5720 C.ar   30  TRP30       0.0015
     83  N         -0.9430    2.1780   43.8000 N.3   106  ARG106     -0.1245
     84  CA        -2.1790    2.0790   44.5580 C.3   106  ARG106      0.1563
     85  C         -1.9490    1.8900   46.0460 C.2   106  ARG106      0.2260
     86  O         -2.8430    2.1200   46.8520 O.2   106  ARG106     -0.2867
     87  CB        -3.0000    0.8620   44.0730 C.3   106  ARG106      0.0307
     88  CG        -3.4160    0.8510   42.6440 C.3   106  ARG106      0.0489
     89  CD        -4.0650   -0.4830   42.2140 C.3   106  ARG106      0.2205
     90  NE        -5.3590   -0.7540   42.8210 N.pl3 106  ARG106     -0.0865
     91  CZ        -6.2140   -1.7040   42.4340 C.cat 106  ARG106      0.5346
     92  NH1       -5.8500   -2.4850   41.4270 N.pl3 106  ARG106      0.1354
     93  NH2       -7.3870   -1.8910   43.0270 N.pl3 106  ARG106      0.1354
     94  N          9.9520   -3.7180   47.4340 N.3   129  MET129     -0.1245
     95  CA         8.5620   -4.1900   47.3480 C.3   129  MET129      0.1570
     96  C          7.6910   -3.2200   46.6070 C.2   129  MET129      0.2261
     97  O          6.7960   -3.6440   45.8320 O.2   129  MET129     -0.2867
     98  CB         7.9990   -4.5520   48.7050 C.3   129  MET129      0.0387
     99  CG         6.5850   -5.1330   48.5470 C.3   129  MET129      0.0595
    100  SD         5.9190   -5.8760   50.0340 S.3   129  MET129     -0.1393
    101  CE         6.8720   -7.3830   50.0670 C.3   129  MET129      0.0692
    102  N          8.3540   -3.8350   42.9670 N.3   132  TYR132     -0.1227
    103  CA         7.6670   -5.0410   42.5120 C.3   132  TYR132      0.1736
    104  C          6.1920   -4.8280   42.2600 C.2   132  TYR132      0.2595
    105  O          5.6120   -5.2460   41.2670 O.2   132  TYR132     -0.2718
    106  CB         7.8840   -6.1520   43.5640 C.3   132  TYR132      0.0548
    107  CG         7.2960   -7.4970   43.1620 C.ar  132  TYR132     -0.0200
    108  CD1        8.0000   -8.3640   42.3320 C.ar  132  TYR132     -0.0009
    109  CD2        6.0240   -7.8850   43.5710 C.ar  132  TYR132     -0.0009
    110  CE1        7.4300   -9.5730   41.9730 C.ar  132  TYR132      0.0417
    111  CE2        5.4790   -9.0920   43.2020 C.ar  132  TYR132      0.0417
    112  CZ         6.1860   -9.9430   42.4110 C.ar  132  TYR132      0.1957
    113  OH         5.7160  -11.1560   41.9840 O.3   132  TYR132     -0.2866
    114  N          5.5400   -4.1890   43.2490 N.am  133  LEU133     -0.1980
    115  CA         4.0960   -3.9410   43.1360 C.3   133  LEU133      0.1596
    116  C          3.7920   -3.0200   41.9580 C.2   133  LEU133      0.2287
    117  O          2.8810   -3.2450   41.2160 O.2   133  LEU133     -0.2864
    118  CB         3.5580   -3.4200   44.4940 C.3   133  LEU133      0.0297
    119  CG         3.5270   -4.4690   45.5870 C.3   133  LEU133      0.0022
    120  CD1        3.2030   -3.8250   46.8950 C.3   133  LEU133      0.0001
    121  CD2        2.5300   -5.5760   45.2850 C.3   133  LEU133      0.0001
    122  N          3.9560   -4.7170   38.7570 N.3   136  SER136     -0.1217
    123  CA         2.8130   -5.6260   38.6880 C.3   136  SER136      0.1889
    124  C          1.4650   -4.9370   38.5270 C.2   136  SER136      0.2288
    125  O          0.4410   -5.6030   38.6370 O.2   136  SER136     -0.2866
    126  CB         2.7280   -6.5010   39.9440 C.3   136  SER136      0.2089
    127  OG         3.8660   -7.3170   40.0950 O.3   136  SER136     -0.2183
    128  N          0.2920   -2.3870   40.5740 N.3   138  PHE138     -0.1241
    129  CA        -0.2430   -1.9940   41.8680 C.3   138  PHE138      0.1605
    130  C          0.4640   -0.7510   42.4130 C.2   138  PHE138      0.2264
    131  O          0.1550   -0.4060   43.5460 O.2   138  PHE138     -0.2867
    132  CB        -0.1910   -3.1570   42.8730 C.3   138  PHE138      0.0534
    133  CG        -1.3510   -4.0950   42.6140 C.ar  138  PHE138     -0.0203
    134  CD1       -1.2990   -4.9810   41.5400 C.ar  138  PHE138     -0.0042
    135  CD2       -2.4510   -4.0640   43.4300 C.ar  138  PHE138     -0.0042
    136  CE1       -2.3430   -5.8490   41.2780 C.ar  138  PHE138     -0.0003
    137  CE2       -3.5130   -4.9470   43.1820 C.ar  138  PHE138     -0.0003
    138  CZ        -3.4420   -5.8180   42.1150 C.ar  138  PHE138     -0.0000
@<TRIPOS>BOND
     1   124   125    2
     2   124   123    1
     3   123   122    1
     4   123   126    1
     5   126   127    1
     6   128   129    1
     7   117   116    2
     8   105   104    2
     9   136   134   ar
    10   136   138   ar
    11    92    91    1
    12   134   133   ar
    13   129   130    1
    14   129   132    1
    15   116   115    1
    16   110   108   ar
    17   110   112   ar
    18   113   112    1
    19   138   137   ar
    20    89    88    1
    21    89    90    1
    22   104   103    1
    23   104   114   am
    24   108   107   ar
    25   112   111   ar
    26   130   131    2
    27    91    90    2
    28    91    93    1
    29   103   102    1
    30   103   106    1
    31   133   132    1
    32   133   135   ar
    33    88    87    1
    34   115   114    1
    35   115   118    1
    36   107   106    1
    37   107   109   ar
    38   137   135   ar
    39   111   109   ar
    40    83    84    1
    41    87    84    1
    42   118   119    1
    43    84    85    1
    44    36    35    1
    45   121   119    1
    46   119   120    1
    47    97    96    2
    48    85    86    2
    49    35    33   ar
    50    35    34   ar
    51    96    95    1
    52    18    16   ar
    53    18    17   ar
    54    16    14   ar
    55    33    31   ar
    56    34    32   ar
    57    95    94    1
    58    95    98    1
    59    82    81   ar
    60    82    80   ar
    61    17    15   ar
    62    81    79   ar
    63    14    13   ar
    64    14    12   ar
    65    31    30   ar
    66    45    46    1
    67    13    11   ar
    68    80    78   ar
    69    99    98    1
    70    99   100    1
    71    32    30   ar
    72    15    12   ar
    73    12    10   ar
    74    30    29    1
    75    79    76   ar
    76    44    42   am
    77    49    46    1
    78    46    47    1
    79    11    10   ar
    80    78    76   ar
    81    78    77   ar
    82   100   101    1
    83    10     9    1
    84    76    74   ar
    85     2     3    1
    86     2     1    1
    87    47    48    2
    88     4     3    2
    89    29    26    1
    90    42    43    2
    91    42    41    1
    92     3     5   am
    93    77    75   ar
    94    23    24    1
    95    23    20    1
    96     5     6    1
    97     6     9    1
    98     6     7    1
    99    26    25    1
   100    26    27    1
   101    41    38    1
   102    25    21   am
   103    74    75   ar
   104    74    73    1
   105    61    60    1
   106    21    22    2
   107    21    20    1
   108    20    19    1
   109    73    70    1
   110     7     8    2
   111    60    59   ar
   112    60    58   ar
   113    27    28    2
   114    59    57   ar
   115    38    39    1
   116    38    37    1
   117    39    40    2
   118    50    51    1
   119    58    56   ar
   120    57    55   ar
   121    53    52    2
   122    70    69    1
   123    70    71    1
   124    56    55   ar
   125    55    54    1
   126    69    64   am
   127    71    72    2
   128    52    51    1
   129    52    62   am
   130    51    54    1
   131    64    65    2
   132    64    63    1
   133    62    63    1
   134    63    66    1
   135    66    67    1
   136    66    68    1
