@<TRIPOS>MOLECULE
tmp/2v8kA00.pdb
 178 170 0 0 0
SMALL
GASTEIGER

@<TRIPOS>ATOM
      1  N          0.4190   21.6110   11.7180 N.3   106  HIS106     -0.1241
      2  CA        -0.6950   20.7530   11.2960 C.3   106  HIS106      0.1621
      3  C         -0.3190   19.5490   10.4370 C.2   106  HIS106      0.2264
      4  O         -1.2020   18.8800    9.8950 O.2   106  HIS106     -0.2867
      5  CB        -1.7970   21.5740   10.6010 C.3   106  HIS106      0.0745
      6  CG        -2.3790   22.6460   11.4630 C.ar  106  HIS106      0.0817
      7  ND1       -3.1590   22.3720   12.5610 N.ar  106  HIS106     -0.2268
      8  CD2       -2.2550   23.9950   11.4180 C.ar  106  HIS106      0.1154
      9  CE1       -3.5040   23.5030   13.1540 C.ar  106  HIS106      0.1986
     10  NE2       -2.9660   24.5020   12.4800 N.ar  106  HIS106     -0.2212
     11  N          2.2390   25.4190    8.6070 N.3   127  GLU127     -0.1245
     12  CA         2.2460   26.4700    9.6070 C.3   127  GLU127      0.1567
     13  C          3.4970   26.3840   10.4390 C.2   127  GLU127      0.2260
     14  O          3.7910   25.3240   10.9850 O.2   127  GLU127     -0.2867
     15  CB         1.0160   26.3520   10.5160 C.3   127  GLU127      0.0388
     16  CG         0.9440   27.4310   11.6190 C.3   127  GLU127      0.1160
     17  CD        -0.3460   27.3470   12.4120 C.2   127  GLU127      0.3649
     18  OE1       -1.3810   26.9900   11.8290 O.co2 127  GLU127     -0.2457
     19  OE2       -0.3420   27.6420   13.6100 O.co2 127  GLU127     -0.2457
     20  N          5.3250   28.6380   13.6430 N.3   129  LYS129     -0.1245
     21  CA         5.1520   29.7030   14.6390 C.3   129  LYS129      0.1561
     22  C          6.3060   29.6610   15.6220 C.2   129  LYS129      0.2260
     23  O          6.4130   28.7190   16.3980 O.2   129  LYS129     -0.2867
     24  CB         3.8260   29.5340   15.3820 C.3   129  LYS129      0.0271
     25  CG         2.6030   29.9210   14.5740 C.3   129  LYS129      0.0035
     26  CD         1.3140   29.6850   15.4040 C.3   129  LYS129      0.0206
     27  CE         0.1130   30.4580   14.8200 C.3   129  LYS129      0.1093
     28  NZ        -1.1480   30.1720   15.6290 N.3   129  LYS129     -0.1314
     29  N         -0.5340   32.9220    8.9250 N.3   168  ARG168     -0.1231
     30  CA         0.1270   31.8290    9.6350 C.3   168  ARG168      0.1694
     31  C         -0.0810   30.4720    8.9610 C.2   168  ARG168      0.2592
     32  O          0.5990   29.4910    9.3080 O.2   168  ARG168     -0.2718
     33  CB        -0.3370   31.7870   11.0980 C.3   168  ARG168      0.0321
     34  CG        -1.6810   31.0840   11.3260 C.3   168  ARG168      0.0489
     35  CD        -2.3290   31.5700   12.6090 C.3   168  ARG168      0.2205
     36  NE        -3.6570   30.9900   12.8640 N.pl3 168  ARG168     -0.0865
     37  CZ        -4.7340   31.2320   12.1210 C.cat 168  ARG168      0.5346
     38  NH1       -4.6550   32.0140   11.0480 N.pl3 168  ARG168      0.1354
     39  NH2       -5.8950   30.6680   12.4320 N.pl3 168  ARG168      0.1354
     40  N         -1.0180   30.4070    8.0110 N.am  169  HIS169     -0.1976
     41  CA        -1.3020   29.1750    7.2780 C.3   169  HIS169      0.1656
     42  C         -0.9020   29.3190    5.8350 C.2   169  HIS169      0.2291
     43  O         -1.0700   30.3910    5.2370 O.2   169  HIS169     -0.2864
     44  CB        -2.7950   28.8520    7.2710 C.3   169  HIS169      0.0771
     45  CG        -3.3850   28.6480    8.6260 C.ar  169  HIS169      0.0820
     46  ND1       -4.5520   29.2620    9.0190 N.ar  169  HIS169     -0.2267
     47  CD2       -2.9860   27.8880    9.6730 C.ar  169  HIS169      0.1154
     48  CE1       -4.8440   28.8910   10.2560 C.ar  169  HIS169      0.1986
     49  NE2       -3.9060   28.0610   10.6770 N.ar  169  HIS169     -0.2212
     50  N         -4.1040   37.1130    8.9440 N.3   196  LEU196     -0.1245
     51  CA        -3.7120   37.5830   10.2810 C.3   196  LEU196      0.1561
     52  C         -2.1950   37.5640   10.4560 C.2   196  LEU196      0.2260
     53  O         -1.5830   36.4900   10.6020 O.2   196  LEU196     -0.2867
     54  CB        -4.3440   36.7150   11.3600 C.3   196  LEU196      0.0270
     55  CG        -5.8630   36.6160   11.4830 C.3   196  LEU196      0.0019
     56  CD1       -6.1980   35.4650   12.4340 C.3   196  LEU196      0.0001
     57  CD2       -6.4670   37.9340   11.9620 C.3   196  LEU196      0.0001
     58  N          0.1780   37.7040   12.5580 N.3   198  PHE198     -0.1241
     59  CA         0.8220   37.3440   13.8210 C.3   198  PHE198      0.1605
     60  C          2.3390   37.3170   13.6790 C.2   198  PHE198      0.2264
     61  O          2.8500   36.8230   12.6760 O.2   198  PHE198     -0.2867
     62  CB         0.3950   35.9510   14.2850 C.3   198  PHE198      0.0534
     63  CG        -1.0690   35.7910   14.5450 C.ar  198  PHE198     -0.0203
     64  CD1       -1.8760   36.8790   14.8920 C.ar  198  PHE198     -0.0042
     65  CD2       -1.6380   34.5210   14.4960 C.ar  198  PHE198     -0.0042
     66  CE1       -3.2350   36.7020   15.1460 C.ar  198  PHE198     -0.0003
     67  CE2       -3.0040   34.3310   14.7530 C.ar  198  PHE198     -0.0003
     68  CZ        -3.8010   35.4190   15.0860 C.ar  198  PHE198     -0.0000
     69  N          4.5510   35.5470   15.4180 N.3   200  ASN200     -0.1240
     70  CA         5.1630   34.2080   15.5350 C.3   200  ASN200      0.1653
     71  C          5.4620   33.5810   14.1550 C.2   200  ASN200      0.2266
     72  O          6.5700   33.0720   13.8940 O.2   200  ASN200     -0.2867
     73  CB         4.3690   33.2750   16.4720 C.3   200  ASN200      0.1155
     74  CG         2.8570   33.2750   16.2170 C.2   200  ASN200      0.2627
     75  OD1        2.3640   33.8480   15.2540 O.2   200  ASN200     -0.2716
     76  ND2        2.1200   32.6230   17.1090 N.am  200  ASN200     -0.0877
     77  N          2.3700   43.1730   17.7910 N.3   245  TYR245     -0.1241
     78  CA         2.2380   41.7320   17.5570 C.3   245  TYR245      0.1605
     79  C          1.7490   41.3880   16.1350 C.2   245  TYR245      0.2264
     80  O          2.0470   40.3180   15.5970 O.2   245  TYR245     -0.2867
     81  CB         1.3310   41.1030   18.6130 C.3   245  TYR245      0.0534
     82  CG         1.2270   39.5960   18.5040 C.ar  245  TYR245     -0.0201
     83  CD1        2.3060   38.7750   18.8670 C.ar  245  TYR245     -0.0009
     84  CD2        0.0670   38.9910   18.0290 C.ar  245  TYR245     -0.0009
     85  CE1        2.2260   37.3920   18.7540 C.ar  245  TYR245      0.0417
     86  CE2       -0.0270   37.6070   17.9300 C.ar  245  TYR245      0.0417
     87  CZ         1.0580   36.8150   18.2950 C.ar  245  TYR245      0.1957
     88  OH         0.9900   35.4420   18.2070 O.3   245  TYR245     -0.2866
     89  N        -15.1820   34.2160   18.5330 N.3   262  THR262     -0.1203
     90  CA       -14.0780   35.1220   18.2290 C.3   262  THR262      0.1994
     91  C        -13.3910   34.8580   16.8800 C.2   262  THR262      0.2618
     92  O        -12.1990   35.1310   16.7240 O.2   262  THR262     -0.2717
     93  CB       -13.0400   35.1370   19.3730 C.3   262  THR262      0.1784
     94  OG1      -12.5380   33.8130   19.5880 O.3   262  THR262     -0.2211
     95  CG2      -13.6880   35.6490   20.6660 C.3   262  THR262      0.0376
     96  N        -14.1520   34.3420   15.9130 N.am  263  HIS263     -0.1961
     97  CA       -13.6640   34.1930   14.5460 C.3   263  HIS263      0.1787
     98  C        -13.3040   35.5600   13.9950 C.2   263  HIS263      0.2620
     99  O        -14.0320   36.5390   14.2110 O.2   263  HIS263     -0.2715
    100  CB       -14.7010   33.5120   13.6510 C.3   263  HIS263      0.0785
    101  CG       -14.8460   32.0430   13.9040 C.ar  263  HIS263      0.0821
    102  ND1      -15.7380   31.5300   14.8210 N.ar  263  HIS263     -0.2267
    103  CD2      -14.2100   30.9740   13.3590 C.ar  263  HIS263      0.1154
    104  CE1      -15.6400   30.2120   14.8400 C.ar  263  HIS263      0.1986
    105  NE2      -14.7210   29.8500   13.9630 N.ar  263  HIS263     -0.2212
    106  N        -12.1820   35.6210   13.2850 N.am  264  SER264     -0.1950
    107  CA       -11.6320   36.8880   12.8150 C.3   264  SER264      0.1924
    108  C        -12.4850   37.6140   11.7810 C.2   264  SER264      0.2314
    109  O        -12.2800   38.8110   11.5530 O.2   264  SER264     -0.2863
    110  CB       -10.1960   36.7140   12.3030 C.3   264  SER264      0.2116
    111  OG       -10.1460   36.0470   11.0510 O.3   264  SER264     -0.2180
    112  N        -10.4630   41.4680   17.2710 N.3   269  ARG269     -0.1245
    113  CA       -10.9700   40.8220   18.4810 C.3   269  ARG269      0.1563
    114  C        -10.7270   41.6310   19.7570 C.2   269  ARG269      0.2260
    115  O        -11.4950   41.5240   20.7110 O.2   269  ARG269     -0.2867
    116  CB       -10.3680   39.4200   18.6220 C.3   269  ARG269      0.0307
    117  CG       -11.0840   38.3010   17.8240 C.3   269  ARG269      0.0489
    118  CD       -10.7120   38.2360   16.3200 C.3   269  ARG269      0.2205
    119  NE        -9.2920   37.9490   16.0870 N.pl3 269  ARG269     -0.0865
    120  CZ        -8.7500   36.7350   16.0640 C.cat 269  ARG269      0.5346
    121  NH1       -9.4970   35.6520   16.2540 N.pl3 269  ARG269      0.1354
    122  NH2       -7.4450   36.6030   15.8650 N.pl3 269  ARG269      0.1354
    123  N          0.8640   38.7690   28.0400 N.3   290  LYS290     -0.1231
    124  CA         1.7040   37.5840   28.2080 C.3   290  LYS290      0.1693
    125  C          1.6070   36.6470   26.9820 C.2   290  LYS290      0.2593
    126  O          0.5280   36.5100   26.3890 O.2   290  LYS290     -0.2718
    127  CB         1.2840   36.8560   29.4820 C.3   290  LYS290      0.0285
    128  CG         2.1830   35.7090   29.8720 C.3   290  LYS290      0.0035
    129  CD         1.6030   34.9780   31.0650 C.3   290  LYS290      0.0206
    130  CE         2.2470   33.6110   31.2350 C.3   290  LYS290      0.1093
    131  NZ         1.6860   32.9120   32.4340 N.3   290  LYS290     -0.1314
    132  N          2.7310   36.0230   26.6160 N.am  291  GLY291     -0.1942
    133  CA         2.8110   35.1700   25.4210 C.3   291  GLY291      0.2014
    134  C          3.1430   35.9740   24.1750 C.2   291  GLY291      0.2638
    135  O          4.1350   35.7050   23.4850 O.2   291  GLY291     -0.2714
    136  N          2.3130   36.9750   23.8930 N.am  292  ARG292     -0.1977
    137  CA         2.5480   37.8940   22.7820 C.3   292  ARG292      0.1597
    138  C          3.8450   38.6550   22.9930 C.2   292  ARG292      0.2287
    139  O          4.5280   39.0070   22.0390 O.2   292  ARG292     -0.2864
    140  CB         1.4010   38.9030   22.6480 C.3   292  ARG292      0.0334
    141  CG        -0.0250   38.3260   22.7320 C.3   292  ARG292      0.0492
    142  CD        -0.3280   37.3150   21.6410 C.3   292  ARG292      0.2205
    143  NE        -1.7540   36.9880   21.5560 N.pl3 292  ARG292     -0.0865
    144  CZ        -2.3610   36.0110   22.2310 C.cat 292  ARG292      0.5346
    145  NH1       -1.6730   35.2290   23.0640 N.pl3 292  ARG292      0.1354
    146  NH2       -3.6620   35.8020   22.0570 N.pl3 292  ARG292      0.1354
    147  N        -11.8320   37.1350   22.9790 N.3   361  TYR361     -0.1241
    148  CA       -10.6150   36.4270   22.5750 C.3   361  TYR361      0.1605
    149  C         -9.5800   36.3330   23.7090 C.2   361  TYR361      0.2264
    150  O         -8.7890   35.3840   23.7760 O.2   361  TYR361     -0.2867
    151  CB       -10.0510   37.1270   21.3210 C.3   361  TYR361      0.0534
    152  CG        -8.8710   36.4740   20.6240 C.ar  361  TYR361     -0.0201
    153  CD1       -8.9490   35.1650   20.1440 C.ar  361  TYR361     -0.0009
    154  CD2       -7.6970   37.1940   20.3910 C.ar  361  TYR361     -0.0009
    155  CE1       -7.8710   34.5720   19.4880 C.ar  361  TYR361      0.0417
    156  CE2       -6.6070   36.6150   19.7320 C.ar  361  TYR361      0.0417
    157  CZ        -6.7030   35.3030   19.2860 C.ar  361  TYR361      0.1957
    158  OH        -5.6400   34.7090   18.6480 O.3   361  TYR361     -0.2866
    159  N         -0.7880   20.3860   16.4040 N.3   512  GLU512     -0.1245
    160  CA        -2.0940   20.7500   16.9050 C.3   512  GLU512      0.1567
    161  C         -3.1810   20.1150   16.0540 C.2   512  GLU512      0.2260
    162  O         -3.0810   20.0940   14.8220 O.2   512  GLU512     -0.2867
    163  CB        -2.2500   22.2690   16.9050 C.3   512  GLU512      0.0388
    164  CG        -3.5680   22.7630   17.4720 C.3   512  GLU512      0.1160
    165  CD        -3.6370   24.2750   17.5460 C.2   512  GLU512      0.3649
    166  OE1       -3.2010   24.9550   16.5790 O.co2 512  GLU512     -0.2457
    167  OE2       -4.1430   24.7880   18.5710 O.co2 512  GLU512     -0.2457
    168  N         -2.8050   20.2350   21.6800 N.3   527  ARG527     -0.1245
    169  CA        -1.4060   20.4560   21.3070 C.3   527  ARG527      0.1563
    170  C         -0.4910   19.4110   21.9250 C.2   527  ARG527      0.2260
    171  O         -0.7340   18.9360   23.0470 O.2   527  ARG527     -0.2867
    172  CB        -0.9420   21.8410   21.7280 C.3   527  ARG527      0.0307
    173  CG        -1.5900   22.9850   20.9630 C.3   527  ARG527      0.0489
    174  CD        -0.9330   24.2960   21.3710 C.3   527  ARG527      0.2205
    175  NE        -1.0550   25.3300   20.3420 N.pl3 527  ARG527     -0.0865
    176  CZ        -0.1120   26.2300   20.0660 C.cat 527  ARG527      0.5346
    177  NH1        1.0510   26.2180   20.7260 N.pl3 527  ARG527      0.1354
    178  NH2       -0.3240   27.1270   19.1100 N.pl3 527  ARG527      0.1354
@<TRIPOS>BOND
     1    43    42    2
     2    42    41    1
     3    44    41    1
     4    44    45    1
     5    41    40    1
     6    40    31   am
     7    11    12    1
     8    45    46   ar
     9    45    47   ar
    10    29    30    1
    11    50    51    1
    12    31    32    2
    13    31    30    1
    14    46    48   ar
    15    12    13    1
    16    12    15    1
    17    30    33    1
    18    47    49   ar
    19     4     3    2
    20    48    49   ar
    21    51    52    1
    22    51    54    1
    23     3     2    1
    24    13    14    2
    25    52    53    2
    26    15    16    1
    27     5     2    1
    28     5     6    1
    29    38    37    1
    30   111   110    1
    31    33    34    1
    32     2     1    1
    33    34    35    1
    34    54    55    1
    35     8     6   ar
    36     8    10   ar
    37     6     7   ar
    38    55    57    1
    39    55    56    1
    40   109   108    2
    41    16    17    1
    42   108   107    1
    43    18    17   ar
    44    37    39    1
    45    37    36    2
    46   110   107    1
    47    17    19   ar
    48    10     9   ar
    49    58    59    1
    50     7     9   ar
    51    35    36    1
    52    61    60    2
    53   107   106    1
    54   106    98   am
    55   103   101   ar
    56   103   105   ar
    57    20    21    1
    58   100   101    1
    59   100    97    1
    60    60    59    1
    61    59    62    1
    62    72    71    2
    63   101   102   ar
    64   105   104   ar
    65    98    99    2
    66    98    97    1
    67    71    70    1
    68    62    63    1
    69    65    63   ar
    70    65    67   ar
    71    63    64   ar
    72    97    96    1
    73    25    24    1
    74    25    26    1
    75    21    24    1
    76    21    22    1
    77    67    68   ar
    78    27    26    1
    79    27    28    1
    80   102   104   ar
    81   162   161    2
    82    64    66   ar
    83    68    66   ar
    84    75    74    2
    85    69    70    1
    86    70    73    1
    87    80    79    2
    88    22    23    2
    89   122   120    1
    90    96    91   am
    91   161   160    1
    92   120   119    2
    93   120   121    1
    94   119   118    1
    95    79    78    1
    96    74    73    1
    97    74    76   am
    98   118   117    1
    99   159   160    1
   100   166   165   ar
   101    92    91    2
   102    91    90    1
   103   163   160    1
   104   163   164    1
   105   112   113    1
   106   164   165    1
   107   165   167   ar
   108    78    77    1
   109    78    81    1
   110   117   116    1
   111    86    84   ar
   112    86    87   ar
   113    84    82   ar
   114    88    87    1
   115    90    89    1
   116    90    93    1
   117    87    85   ar
   118   113   116    1
   119   113   114    1
   120    82    81    1
   121    82    83   ar
   122   158   157    1
   123    85    83   ar
   124   178   176    1
   125   157   155   ar
   126   157   156   ar
   127    93    94    1
   128    93    95    1
   129   155   153   ar
   130   156   154   ar
   131   114   115    2
   132   176   175    2
   133   176   177    1
   134   153   152   ar
   135   175   174    1
   136   154   152   ar
   137   152   151    1
   138   173   174    1
   139   173   172    1
   140   169   168    1
   141   169   172    1
   142   169   170    1
   143   151   148    1
   144   143   142    1
   145   143   144    2
   146   142   141    1
   147   170   171    2
   148   139   138    2
   149   146   144    1
   150   144   145    1
   151   148   147    1
   152   148   149    1
   153   140   141    1
   154   140   137    1
   155   137   138    1
   156   137   136    1
   157   135   134    2
   158   149   150    2
   159   136   134   am
   160   134   133    1
   161   133   132    1
   162   126   125    2
   163   132   125   am
   164   125   124    1
   165   123   124    1
   166   124   127    1
   167   127   128    1
   168   128   129    1
   169   129   130    1
   170   130   131    1
