@<TRIPOS>MOLECULE
tmp/2v8pA00.pdb
 85 82 0 0 0
SMALL
GASTEIGER

@<TRIPOS>ATOM
      1  N        110.6750   -8.3240   65.5630 N.3    25  GLY25      -0.1210
      2  CA       110.4870   -8.5630   64.1240 C.3    25  GLY25       0.1956
      3  C        110.4350   -7.2560   63.3450 C.2    25  GLY25       0.2612
      4  O        110.4620   -7.2560   62.1140 O.2    25  GLY25      -0.2717
      5  N        110.3450   -6.1430   64.0690 N.am   26  TYR26      -0.1962
      6  CA       110.4810   -4.8100   63.4850 C.3    26  TYR26       0.1771
      7  C        111.9410   -4.5580   63.1060 C.2    26  TYR26       0.2619
      8  O        112.8330   -5.2790   63.5450 O.2    26  TYR26      -0.2715
      9  CB       110.0030   -3.7390   64.4670 C.3    26  TYR26       0.0574
     10  CG       108.4940   -3.5680   64.5290 C.ar   26  TYR26      -0.0198
     11  CD1      107.6790   -4.5460   65.1070 C.ar   26  TYR26      -0.0009
     12  CD2      107.8870   -2.4200   64.0240 C.ar   26  TYR26      -0.0009
     13  CE1      106.2920   -4.3880   65.1720 C.ar   26  TYR26       0.0417
     14  CE2      106.5020   -2.2470   64.0870 C.ar   26  TYR26       0.0417
     15  CZ       105.7110   -3.2350   64.6620 C.ar   26  TYR26       0.1957
     16  OH       104.3410   -3.0690   64.7240 O.3    26  TYR26      -0.2866
     17  N        112.1770   -3.5350   62.2920 N.am   27  HIS27      -0.1973
     18  CA       113.5270   -3.2150   61.8400 C.3    27  HIS27       0.1656
     19  C        114.0370   -1.9600   62.5170 C.2    27  HIS27       0.2291
     20  O        113.2710   -1.0220   62.7450 O.2    27  HIS27      -0.2864
     21  CB       113.5650   -3.0410   60.3190 C.3    27  HIS27       0.0771
     22  CG       113.3160   -4.3050   59.5610 C.ar   27  HIS27       0.0820
     23  ND1      112.0650   -4.8780   59.4540 N.ar   27  HIS27      -0.2267
     24  CD2      114.1600   -5.1130   58.8780 C.ar   27  HIS27       0.1154
     25  CE1      112.1520   -5.9810   58.7360 C.ar   27  HIS27       0.1986
     26  NE2      113.4130   -6.1470   58.3760 N.ar   27  HIS27      -0.2212
     27  N        116.1490    1.4330   62.2770 N.3    29  ILE29      -0.1245
     28  CA       116.4020    2.3710   61.1920 C.3    29  ILE29       0.1561
     29  C        117.2200    3.5730   61.6380 C.2    29  ILE29       0.2260
     30  O        117.3090    3.8760   62.8290 O.2    29  ILE29      -0.2867
     31  CB       115.0750    2.8880   60.5480 C.3    29  ILE29       0.0252
     32  CG1      114.2630    3.7210   61.5540 C.3    29  ILE29       0.0019
     33  CG2      114.2570    1.7330   59.9720 C.3    29  ILE29       0.0019
     34  CD1      113.3170    4.7130   60.9200 C.3    29  ILE29       0.0001
     35  N        101.8830    3.2800   69.8020 N.3   129  ILE129     -0.1231
     36  CA       100.9410    3.0770   68.6860 C.3   129  ILE129      0.1692
     37  C        101.6280    3.2230   67.3140 C.2   129  ILE129      0.2593
     38  O        101.3370    2.4540   66.3870 O.2   129  ILE129     -0.2718
     39  CB        99.6980    4.0170   68.7940 C.3   129  ILE129      0.0266
     40  CG1       98.9310    3.7470   70.0940 C.3   129  ILE129      0.0019
     41  CG2       98.7510    3.8270   67.6150 C.3   129  ILE129      0.0020
     42  CD1       98.3290    4.9820   70.7120 C.3   129  ILE129      0.0001
     43  N        102.5300    4.2020   67.1940 N.am  130  SER130     -0.1938
     44  CA       103.2370    4.4720   65.9350 C.3   130  SER130      0.2055
     45  C        104.6370    5.0660   66.1480 C.2   130  SER130      0.2642
     46  O        104.7900    6.0870   66.8250 O.2   130  SER130     -0.2714
     47  CB       102.3970    5.3920   65.0360 C.3   130  SER130      0.2130
     48  OG       103.0380    5.6240   63.7910 O.3   130  SER130     -0.2179
     49  N        105.6500    4.4300   65.5540 N.am  131  ALA131     -0.1977
     50  CA       107.0460    4.8730   65.6930 C.3   131  ALA131      0.1597
     51  C        107.3290    6.2470   65.0690 C.2   131  ALA131      0.2287
     52  O        108.2120    6.9680   65.5410 O.2   131  ALA131     -0.2864
     53  CB       108.0050    3.8200   65.1350 C.3   131  ALA131      0.0319
     54  N        113.3240    2.6740   65.9570 N.3   147  LYS147     -0.1245
     55  CA       112.3600    2.4940   64.8690 C.3   147  LYS147      0.1561
     56  C        111.9160    3.8580   64.3350 C.2   147  LYS147      0.2260
     57  O        111.0230    3.9540   63.4980 O.2   147  LYS147     -0.2867
     58  CB       111.1530    1.6730   65.3330 C.3   147  LYS147      0.0271
     59  CG       111.4970    0.2710   65.8430 C.3   147  LYS147      0.0035
     60  CD       110.2660   -0.4450   66.4000 C.3   147  LYS147      0.0206
     61  CE       109.9190    0.0140   67.8180 C.3   147  LYS147      0.1093
     62  NZ       110.9660   -0.3870   68.8070 N.3   147  LYS147     -0.1314
     63  N        103.6210   -0.5560   54.1170 N.3   173  THR173     -0.1203
     64  CA       104.8750   -0.6080   54.8650 C.3   173  THR173      0.1994
     65  C        105.2640   -2.0430   55.2270 C.2   173  THR173      0.2618
     66  O        106.4360   -2.4240   55.1130 O.2   173  THR173     -0.2717
     67  CB       104.7830    0.2860   56.1100 C.3   173  THR173      0.1784
     68  OG1      104.6170    1.6490   55.6920 O.3   173  THR173     -0.2211
     69  CG2      106.0340    0.1740   56.9790 C.3   173  THR173      0.0376
     70  N        104.2720   -2.8350   55.6350 N.am  174  GLY174     -0.1956
     71  CA       104.4600   -4.2490   55.9460 C.3   174  GLY174      0.1869
     72  C        105.0060   -5.0830   54.8070 C.2   174  GLY174      0.2309
     73  O        105.9260   -5.8790   55.0100 O.2   174  GLY174     -0.2863
     74  N        108.8410   -3.9550   53.9530 N.3   177  TYR177     -0.1241
     75  CA       109.8150   -4.5250   54.8940 C.3   177  TYR177      0.1605
     76  C        109.9940   -6.0370   54.7360 C.2   177  TYR177      0.2264
     77  O        111.0910   -6.5560   54.9540 O.2   177  TYR177     -0.2867
     78  CB       109.4530   -4.1780   56.3390 C.3   177  TYR177      0.0534
     79  CG       109.9830   -2.8400   56.8300 C.ar  177  TYR177     -0.0201
     80  CD1      109.1210   -1.7720   57.0630 C.ar  177  TYR177     -0.0009
     81  CD2      111.3500   -2.6530   57.0860 C.ar  177  TYR177     -0.0009
     82  CE1      109.5960   -0.5470   57.5260 C.ar  177  TYR177      0.0417
     83  CE2      111.8370   -1.4300   57.5510 C.ar  177  TYR177      0.0417
     84  CZ       110.9570   -0.3870   57.7710 C.ar  177  TYR177      0.1957
     85  OH       111.4290    0.8230   58.2300 O.3   177  TYR177     -0.2866
@<TRIPOS>BOND
     1    74    75    1
     2    63    64    1
     3    76    75    1
     4    76    77    2
     5    72    73    2
     6    72    71    1
     7    64    65    1
     8    64    67    1
     9    75    78    1
    10    66    65    2
    11    65    70   am
    12    70    71    1
    13    68    67    1
    14    67    69    1
    15    78    79    1
    16    79    80   ar
    17    79    81   ar
    18    80    82   ar
    19    81    83   ar
    20    82    84   ar
    21    83    84   ar
    22    84    85    1
    23    26    25   ar
    24    26    24   ar
    25    25    23   ar
    26    24    22   ar
    27    23    22   ar
    28    22    21    1
    29    33    31    1
    30    21    18    1
    31    31    28    1
    32    31    32    1
    33    34    32    1
    34    28    29    1
    35    28    27    1
    36    29    30    2
    37    18    17    1
    38    18    19    1
    39     4     3    2
    40    17     7   am
    41    19    20    2
    42     7     6    1
    43     7     8    2
    44     3     5   am
    45     3     2    1
    46     6     5    1
    47     6     9    1
    48    57    56    2
    49    48    47    1
    50    12    14   ar
    51    12    10   ar
    52    14    15   ar
    53     2     1    1
    54    56    55    1
    55     9    10    1
    56    10    11   ar
    57    15    16    1
    58    15    13   ar
    59    55    58    1
    60    55    54    1
    61    47    44    1
    62    51    52    2
    63    51    50    1
    64    11    13   ar
    65    53    50    1
    66    58    59    1
    67    49    50    1
    68    49    45   am
    69    59    60    1
    70    44    45    1
    71    44    43    1
    72    45    46    2
    73    38    37    2
    74    60    61    1
    75    43    37   am
    76    37    36    1
    77    41    39    1
    78    61    62    1
    79    36    39    1
    80    36    35    1
    81    39    40    1
    82    40    42    1
