@<TRIPOS>MOLECULE
tmp/2v8pA01.pdb
 164 155 0 0 0
SMALL
GASTEIGER

@<TRIPOS>ATOM
      1  N        105.3700   14.6050   56.9280 N.3    11  LYS11      -0.1245
      2  CA       106.8340   14.5260   56.9270 C.3    11  LYS11       0.1561
      3  C        107.3350   13.8950   55.6400 C.2    11  LYS11       0.2260
      4  O        106.6060   13.1580   54.9790 O.2    11  LYS11      -0.2867
      5  CB       107.3730   13.7480   58.1500 C.3    11  LYS11       0.0271
      6  CG       106.8760   12.3060   58.3000 C.3    11  LYS11       0.0035
      7  CD       107.6490   11.2680   57.4680 C.3    11  LYS11       0.0206
      8  CE       107.0470    9.8820   57.6660 C.3    11  LYS11       0.1093
      9  NZ       107.5580    8.8700   56.6870 N.3    11  LYS11      -0.1314
     10  N         87.7820    6.4060   56.8880 N.3    57  ILE57      -0.1245
     11  CA        88.6120    5.5450   57.7270 C.3    57  ILE57       0.1561
     12  C         87.7550    5.0700   58.8980 C.2    57  ILE57       0.2260
     13  O         87.2230    5.8960   59.6460 O.2    57  ILE57      -0.2867
     14  CB        89.8820    6.2640   58.2560 C.3    57  ILE57       0.0252
     15  CG1       90.8290    6.6240   57.1060 C.3    57  ILE57       0.0019
     16  CG2       90.6100    5.3880   59.2850 C.3    57  ILE57       0.0019
     17  CD1       92.0120    7.4850   57.5190 C.3    57  ILE57       0.0001
     18  N         89.8650    1.5920   63.4170 N.3    61  GLU61      -0.1231
     19  CA        91.1790    1.5010   62.7740 C.3    61  GLU61       0.1699
     20  C         92.0020    2.7810   62.9290 C.2    61  GLU61       0.2592
     21  O         93.2260    2.7600   62.7580 O.2    61  GLU61      -0.2718
     22  CB        91.0340    1.1630   61.2850 C.3    61  GLU61       0.0402
     23  CG        90.6330   -0.2780   60.9910 C.3    61  GLU61       0.1161
     24  CD        90.5960   -0.5920   59.4990 C.2    61  GLU61       0.3649
     25  OE1       91.5190   -0.1650   58.7650 O.co2  61  GLU61      -0.2457
     26  OE2       89.6410   -1.2780   59.0600 O.co2  61  GLU61      -0.2457
     27  N         91.3290    3.8830   63.2580 N.am   62  ASN62      -0.1960
     28  CA        91.9600    5.2000   63.3280 C.3    62  ASN62       0.1819
     29  C         92.9540    5.3340   64.4840 C.2    62  ASN62       0.2621
     30  O         92.5970    5.1320   65.6490 O.2    62  ASN62      -0.2715
     31  CB        90.8920    6.2980   63.4020 C.3    62  ASN62       0.1195
     32  CG        91.3860    7.6340   62.8730 C.2    62  ASN62       0.2630
     33  OD1       92.3300    8.2190   63.4000 O.2    62  ASN62      -0.2716
     34  ND2       90.7380    8.1270   61.8300 N.am   62  ASN62      -0.0877
     35  N         94.1970    5.6870   64.1460 N.am   63  LEU63      -0.1963
     36  CA        95.2760    5.8450   65.1240 C.3    63  LEU63       0.1728
     37  C         94.9370    6.8450   66.2250 C.2    63  LEU63       0.2616
     38  O         95.3680    6.6790   67.3680 O.2    63  LEU63      -0.2715
     39  CB        96.5930    6.2630   64.4490 C.3    63  LEU63       0.0311
     40  CG        97.3400    5.3380   63.4760 C.3    63  LEU63       0.0022
     41  CD1       98.7290    5.9000   63.2130 C.3    63  LEU63       0.0001
     42  CD2       97.4330    3.8980   63.9720 C.3    63  LEU63       0.0001
     43  N         94.1750    7.8790   65.8700 N.am   64  VAL64      -0.1977
     44  CA        93.7650    8.9140   66.8230 C.3    64  VAL64       0.1596
     45  C         92.8310    8.3330   67.8780 C.2    64  VAL64       0.2287
     46  O         92.9630    8.6420   69.0620 O.2    64  VAL64      -0.2864
     47  CB        93.1000   10.1280   66.1190 C.3    64  VAL64       0.0276
     48  CG1       92.5630   11.1300   67.1350 C.3    64  VAL64       0.0022
     49  CG2       94.0870   10.8130   65.2020 C.3    64  VAL64       0.0022
     50  N         88.6950   14.8680   61.1640 N.3    85  ILE85      -0.1245
     51  CA        89.9260   15.0890   60.4210 C.3    85  ILE85       0.1561
     52  C         89.6440   15.1760   58.9220 C.2    85  ILE85       0.2260
     53  O         89.1210   14.2330   58.3210 O.2    85  ILE85      -0.2867
     54  CB        90.9780   13.9840   60.7040 C.3    85  ILE85       0.0252
     55  CG1       91.1400   13.7680   62.2180 C.3    85  ILE85       0.0019
     56  CG2       92.3170   14.3370   60.0480 C.3    85  ILE85       0.0019
     57  CD1       91.6020   12.3740   62.6110 C.3    85  ILE85       0.0001
     58  N         91.2850   14.8200   55.6780 N.3    87  LYS87      -0.1245
     59  CA        92.4890   14.0930   55.2610 C.3    87  LYS87       0.1561
     60  C         93.0460   14.5370   53.9030 C.2    87  LYS87       0.2260
     61  O         92.6390   14.0260   52.8560 O.2    87  LYS87      -0.2867
     62  CB        92.2100   12.5820   55.2410 C.3    87  LYS87       0.0271
     63  CG        91.9500   11.9340   56.6180 C.3    87  LYS87       0.0035
     64  CD        93.2050   11.8980   57.4990 C.3    87  LYS87       0.0206
     65  CE        94.3910   11.2790   56.7820 C.3    87  LYS87       0.1093
     66  NZ        95.6560   11.4940   57.5330 N.3    87  LYS87      -0.1314
     67  N         97.5000   11.9070   51.8460 N.3    90  PRO90      -0.2103
     68  CA        96.9670   10.6010   51.4640 C.3    90  PRO90       0.1489
     69  C         97.5340    9.4610   52.3250 C.2    90  PRO90       0.2418
     70  O         98.7400    9.4270   52.5890 O.2    90  PRO90      -0.2734
     71  CB        97.4130   10.4540   50.0020 C.3    90  PRO90       0.0282
     72  CG        97.6990   11.8600   49.5410 C.3    90  PRO90       0.0208
     73  CD        98.2720   12.5190   50.7480 C.3    90  PRO90       0.0893
     74  N         96.6590    8.5580   52.8010 N.am   91  PRO91      -0.2718
     75  CA        97.1240    7.3400   53.4740 C.3    91  PRO91       0.1535
     76  C         97.9610    6.4390   52.5690 C.2    91  PRO91       0.2599
     77  O         97.5570    6.1370   51.4470 O.2    91  PRO91      -0.2715
     78  CB        95.8200    6.6390   53.8680 C.3    91  PRO91       0.0310
     79  CG        94.8180    7.7370   53.9350 C.3    91  PRO91       0.0237
     80  CD        95.1880    8.6440   52.8010 C.3    91  PRO91       0.0939
     81  N         99.1260    6.0310   53.0690 N.am   92  GLY92      -0.1941
     82  CA       100.0210    5.1270   52.3500 C.3    92  GLY92       0.2014
     83  C        100.9250    5.8370   51.3660 C.2    92  GLY92       0.2639
     84  O        101.4700    5.2150   50.4520 O.2    92  GLY92      -0.2714
     85  N        101.0840    7.1410   51.5570 N.am   93  ALA93      -0.1963
     86  CA       101.9440    7.9530   50.7160 C.3    93  ALA93       0.1728
     87  C        103.3460    8.0980   51.3070 C.2    93  ALA93       0.2617
     88  O        104.1910    8.7840   50.7300 O.2    93  ALA93      -0.2715
     89  CB       101.3170    9.3230   50.4950 C.3    93  ALA93       0.0334
     90  N        103.5880    7.4600   52.4560 N.am   94  GLY94      -0.1940
     91  CA       104.8890    7.5250   53.1330 C.3    94  GLY94       0.2014
     92  C        105.1630    8.8670   53.7820 C.2    94  GLY94       0.2639
     93  O        106.3150    9.2390   54.0050 O.2    94  GLY94      -0.2714
     94  N        104.0920    9.5890   54.0950 N.am   95  LEU95      -0.1963
     95  CA       104.1930   10.9540   54.6130 C.3    95  LEU95       0.1728
     96  C        103.7780   11.0520   56.0790 C.2    95  LEU95       0.2617
     97  O        103.7400   12.1440   56.6420 O.2    95  LEU95      -0.2715
     98  CB       103.3620   11.9250   53.7500 C.3    95  LEU95       0.0311
     99  CG       103.6590   12.0750   52.2500 C.3    95  LEU95       0.0022
    100  CD1      102.6910   13.0830   51.6260 C.3    95  LEU95       0.0001
    101  CD2      105.1170   12.4790   51.9680 C.3    95  LEU95       0.0001
    102  N        103.4680    9.9050   56.6840 N.am   96  GLY96      -0.1940
    103  CA       103.1720    9.8220   58.1140 C.3    96  GLY96       0.2014
    104  C        101.9690   10.6270   58.5750 C.2    96  GLY96       0.2639
    105  O        101.9800   11.1870   59.6710 O.2    96  GLY96      -0.2714
    106  N        100.9370   10.6800   57.7360 N.am   97  GLY97      -0.1939
    107  CA        99.7220   11.4360   58.0330 C.3    97  GLY97       0.2014
    108  C         98.9720   10.9520   59.2650 C.2    97  GLY97       0.2639
    109  O         98.5270   11.7620   60.0740 O.2    97  GLY97      -0.2714
    110  N         98.8170    9.6340   59.3880 N.am   98  GLY98      -0.1939
    111  CA        98.1800    9.0110   60.5510 C.3    98  GLY98       0.2014
    112  C         98.9250    9.2790   61.8440 C.2    98  GLY98       0.2639
    113  O         98.3200    9.6480   62.8550 O.2    98  GLY98      -0.2714
    114  N        100.2460    9.1060   61.8000 N.am   99  SER99      -0.1949
    115  CA       101.1180    9.3850   62.9440 C.3    99  SER99       0.1924
    116  C        101.0780   10.8510   63.3660 C.2    99  SER99       0.2314
    117  O        101.0990   11.1510   64.5620 O.2    99  SER99      -0.2863
    118  CB       102.5530    8.9780   62.6290 C.3    99  SER99       0.2116
    119  OG       102.5990    7.6170   62.2520 O.3    99  SER99      -0.2180
    120  N         98.4700   12.9920   62.7900 N.3   101  ASN101     -0.1240
    121  CA        97.1330   13.1050   63.3760 C.3   101  ASN101      0.1653
    122  C         97.1450   12.6630   64.8350 C.2   101  ASN101      0.2266
    123  O         96.7390   13.4140   65.7230 O.2   101  ASN101     -0.2867
    124  CB        96.1330   12.2270   62.6160 C.3   101  ASN101      0.1155
    125  CG        95.8230   12.7260   61.2160 C.2   101  ASN101      0.2627
    126  OD1       95.0290   12.1070   60.5200 O.2   101  ASN101     -0.2716
    127  ND2       96.4370   13.8330   60.7970 N.am  101  ASN101     -0.0877
    128  N        106.5770    6.6010   64.0240 N.3   132  ASP132     -0.1239
    129  CA       106.6840    7.9210   63.3670 C.3   132  ASP132      0.1674
    130  C        106.0300    9.0730   64.1430 C.2   132  ASP132      0.2266
    131  O        106.2660   10.2470   63.8310 O.2   132  ASP132     -0.2867
    132  CB       106.0510    7.8810   61.9720 C.3   132  ASP132      0.1410
    133  CG       106.8960    7.1360   60.9460 C.2   132  ASP132      0.3668
    134  OD1      108.1420    7.2160   60.9930 O.co2 132  ASP132     -0.2456
    135  OD2      106.2910    6.4730   60.0740 O.co2 132  ASP132     -0.2456
    136  N         98.5190    2.9020   47.0630 N.3   170  SER170     -0.1202
    137  CA        98.8360    3.0720   48.4710 C.3   170  SER170      0.2020
    138  C         99.8930    2.0410   48.8330 C.2   170  SER170      0.2619
    139  O         99.6840    0.8350   48.6640 O.2   170  SER170     -0.2717
    140  CB        97.5760    2.8790   49.3190 C.3   170  SER170      0.2103
    141  OG        97.6530    3.6290   50.5160 O.3   170  SER170     -0.2182
    142  N        101.0450    2.5210   49.2970 N.am  171  SER171     -0.1951
    143  CA       102.1580    1.6400   49.6310 C.3   171  SER171      0.1924
    144  C        101.9930    1.0010   51.0130 C.2   171  SER171      0.2314
    145  O        101.7850    1.6980   52.0050 O.2   171  SER171     -0.2863
    146  CB       103.4730    2.4080   49.5600 C.3   171  SER171      0.2116
    147  OG       104.5400    1.5990   50.0010 O.3   171  SER171     -0.2180
    148  N        103.6210   -0.5560   54.1170 N.3   173  THR173     -0.1218
    149  CA       104.8750   -0.6080   54.8650 C.3   173  THR173      0.1862
    150  C        105.2640   -2.0430   55.2270 C.2   173  THR173      0.2287
    151  O        106.4360   -2.4240   55.1130 O.2   173  THR173     -0.2866
    152  CB       104.7830    0.2860   56.1100 C.3   173  THR173      0.1770
    153  OG1      104.6170    1.6490   55.6920 O.3   173  THR173     -0.2211
    154  CG2      106.0340    0.1740   56.9790 C.3   173  THR173      0.0375
    155  N        108.2130    4.2480   53.0520 N.3   240  SER240     -0.1202
    156  CA       108.1710    3.0520   52.2230 C.3   240  SER240      0.2020
    157  C        107.3760    3.2890   50.9300 C.2   240  SER240      0.2619
    158  O        106.7440    2.3750   50.4120 O.2   240  SER240     -0.2717
    159  CB       107.5460    1.9020   53.0110 C.3   240  SER240      0.2103
    160  OG       106.2340    2.2460   53.4260 O.3   240  SER240     -0.2182
    161  N        107.4320    4.5110   50.4040 N.am  241  GLY241     -0.1956
    162  CA       106.5470    4.9130   49.3120 C.3   241  GLY241      0.1869
    163  C        105.2220    5.3580   49.9230 C.2   241  GLY241      0.2309
    164  O        105.0090    5.1610   51.1180 O.2   241  GLY241     -0.2863
@<TRIPOS>BOND
     1   136   137    1
     2   137   138    1
     3   137   140    1
     4   139   138    2
     5   138   142   am
     6   142   143    1
     7   162   163    1
     8   162   161    1
     9   140   141    1
    10    72    71    1
    11    72    73    1
    12   146   143    1
    13   146   147    1
    14   143   144    1
    15   163   164    2
    16    71    68    1
    17   161   157   am
    18   158   157    2
    19    84    83    2
    20    89    86    1
    21    86    87    1
    22    86    85    1
    23    88    87    2
    24    73    67    1
    25   157   156    1
    26   144   145    2
    27    87    90   am
    28    83    85   am
    29    83    82    1
    30    77    76    2
    31    68    67    1
    32    68    69    1
    33   100    99    1
    34   101    99    1
    35   156   159    1
    36   156   155    1
    37    99    98    1
    38    69    70    2
    39    69    74   am
    40    82    81    1
    41    90    91    1
    42    76    81   am
    43    76    75    1
    44    80    74    1
    45    80    79    1
    46    74    75    1
    47    61    60    2
    48   159   160    1
    49    91    92    1
    50    75    78    1
    51    98    95    1
    52    92    93    2
    53    92    94   am
    54    78    79    1
    55    60    59    1
    56    94    95    1
    57   148   149    1
    58    95    96    1
    59   149   150    1
    60   149   152    1
    61     4     3    2
    62   151   150    2
    63    62    59    1
    64    62    63    1
    65    59    58    1
    66     3     2    1
    67   153   152    1
    68    96    97    2
    69    96   102   am
    70   152   154    1
    71    63    64    1
    72   102   103    1
    73     9     8    1
    74    65    64    1
    75    65    66    1
    76    10    11    1
    77     2     1    1
    78     2     5    1
    79    15    17    1
    80    15    14    1
    81     7     8    1
    82     7     6    1
    83    11    14    1
    84    11    12    1
    85   106   107    1
    86   106   104   am
    87   107   108    1
    88   103   104    1
    89     5     6    1
    90    14    16    1
    91    53    52    2
    92   104   105    2
    93    25    24   ar
    94    12    13    2
    95    52    51    1
    96    26    24   ar
    97   108   110   am
    98   108   109    2
    99   110   111    1
   100    24    23    1
   101    56    54    1
   102   135   133   ar
   103    51    54    1
   104    51    50    1
   105   126   125    2
   106   111   112    1
   107    54    55    1
   108   127   125   am
   109   133   134   ar
   110   133   132    1
   111    23    22    1
   112   125   124    1
   113    22    19    1
   114   114   112   am
   115   114   115    1
   116    34    32   am
   117   112   113    2
   118   132   129    1
   119    55    57    1
   120   119   118    1
   121   124   121    1
   122   118   115    1
   123    21    20    2
   124    19    20    1
   125    19    18    1
   126   120   121    1
   127    32    33    2
   128    32    31    1
   129    20    27   am
   130   115   116    1
   131    41    40    1
   132    27    28    1
   133    28    31    1
   134    28    29    1
   135   116   117    2
   136   129   128    1
   137   129   130    1
   138   121   122    1
   139    40    42    1
   140    40    39    1
   141   131   130    2
   142    35    29   am
   143    35    36    1
   144    39    36    1
   145    29    30    2
   146   122   123    2
   147    36    37    1
   148    49    47    1
   149    43    37   am
   150    43    44    1
   151    47    44    1
   152    47    48    1
   153    37    38    2
   154    44    45    1
   155    45    46    2
