@<TRIPOS>MOLECULE
tmp/2v8pB00.pdb
 96 94 0 0 0
SMALL
GASTEIGER

@<TRIPOS>ATOM
      1  N        153.4240    9.7280   59.8200 N.3    25  GLY25      -0.1210
      2  CA       153.1340   10.8510   58.9240 C.3    25  GLY25       0.1956
      3  C        152.2810   10.4500   57.7280 C.2    25  GLY25       0.2612
      4  O        151.6740   11.2980   57.0710 O.2    25  GLY25      -0.2717
      5  N        152.2440    9.1510   57.4420 N.am   26  TYR26      -0.1962
      6  CA       151.3970    8.6160   56.3860 C.3    26  TYR26       0.1771
      7  C        149.9340    8.6110   56.8230 C.2    26  TYR26       0.2619
      8  O        149.6150    9.0170   57.9370 O.2    26  TYR26      -0.2715
      9  CB       151.8640    7.2210   55.9720 C.3    26  TYR26       0.0574
     10  CG       153.0740    7.2440   55.0660 C.ar   26  TYR26      -0.0198
     11  CD1      154.2920    7.7690   55.5140 C.ar   26  TYR26      -0.0009
     12  CD2      153.0100    6.7370   53.7620 C.ar   26  TYR26      -0.0009
     13  CE1      155.4120    7.7970   54.6910 C.ar   26  TYR26       0.0417
     14  CE2      154.1280    6.7580   52.9260 C.ar   26  TYR26       0.0417
     15  CZ       155.3250    7.2910   53.4030 C.ar   26  TYR26       0.1957
     16  OH       156.4460    7.3280   52.6080 O.3    26  TYR26      -0.2866
     17  N        149.0520    8.1820   55.9250 N.am   27  HIS27      -0.1973
     18  CA       147.6260    8.1250   56.2180 C.3    27  HIS27       0.1656
     19  C        147.0790    6.7490   55.9650 C.2    27  HIS27       0.2291
     20  O        147.4570    6.0780   54.9980 O.2    27  HIS27      -0.2864
     21  CB       146.8580    9.1680   55.4060 C.3    27  HIS27       0.0771
     22  CG       147.1990   10.5710   55.7800 C.ar   27  HIS27       0.0820
     23  ND1      148.3360   11.2030   55.3220 N.ar   27  HIS27      -0.2267
     24  CD2      146.5760   11.4550   56.5950 C.ar   27  HIS27       0.1154
     25  CE1      148.3890   12.4230   55.8280 C.ar   27  HIS27       0.1986
     26  NE2      147.3350   12.6000   56.6040 N.ar   27  HIS27      -0.2212
     27  N        162.7200    5.3750   41.2500 N.3    63  LEU63      -0.1245
     28  CA       162.2830    4.3120   42.1700 C.3    63  LEU63       0.1561
     29  C        162.8680    2.9380   41.8460 C.2    63  LEU63       0.2260
     30  O        163.1440    2.1520   42.7510 O.2    63  LEU63      -0.2867
     31  CB       160.7490    4.2190   42.2300 C.3    63  LEU63       0.0270
     32  CG       159.9210    5.3930   42.7660 C.3    63  LEU63       0.0019
     33  CD1      158.4750    4.9530   42.9990 C.3    63  LEU63       0.0001
     34  CD2      160.5060    5.9770   44.0470 C.3    63  LEU63       0.0001
     35  N        158.4240   -0.8800   50.8980 N.3   128  SER128     -0.1202
     36  CA       159.1710    0.0460   51.7590 C.3   128  SER128      0.2020
     37  C        159.5550    1.3310   51.0280 C.2   128  SER128      0.2619
     38  O        159.8700    2.3460   51.6610 O.2   128  SER128     -0.2717
     39  CB       160.4200   -0.6250   52.3410 C.3   128  SER128      0.2103
     40  OG       161.3410   -0.9730   51.3200 O.3   128  SER128     -0.2182
     41  N        159.5250    1.2770   49.6970 N.am  129  ILE129     -0.1965
     42  CA       159.8380    2.4310   48.8530 C.3   129  ILE129      0.1727
     43  C        158.5630    3.1670   48.4160 C.2   129  ILE129      0.2617
     44  O        158.5060    4.4060   48.4400 O.2   129  ILE129     -0.2715
     45  CB       160.7060    2.0130   47.6390 C.3   129  ILE129      0.0290
     46  CG1      162.0630    1.4850   48.1290 C.3   129  ILE129      0.0022
     47  CG2      160.9050    3.1940   46.6680 C.3   129  ILE129      0.0023
     48  CD1      162.7970    0.6080   47.1320 C.3   129  ILE129      0.0001
     49  N        157.5410    2.4030   48.0360 N.am  130  SER130     -0.1936
     50  CA       156.2740    2.9820   47.5860 C.3   130  SER130      0.2055
     51  C        155.0840    2.1290   48.0340 C.2   130  SER130      0.2643
     52  O        155.0150    0.9450   47.7180 O.2   130  SER130     -0.2714
     53  CB       156.2720    3.1600   46.0610 C.3   130  SER130      0.2130
     54  OG       154.9640    3.4460   45.5730 O.3   130  SER130     -0.2179
     55  N        154.1550    2.7460   48.7630 N.am  131  ALA131     -0.1963
     56  CA       152.9420    2.0670   49.2370 C.3   131  ALA131      0.1728
     57  C        152.0160    1.6070   48.1040 C.2   131  ALA131      0.2616
     58  O        151.1860    0.7100   48.3030 O.2   131  ALA131     -0.2715
     59  CB       152.1780    2.9580   50.2330 C.3   131  ALA131      0.0334
     60  N        152.1590    2.2160   46.9260 N.am  132  ASP132     -0.1971
     61  CA       151.3840    1.8180   45.7390 C.3   132  ASP132      0.1709
     62  C        152.0120    0.6410   44.9870 C.2   132  ASP132      0.2293
     63  O        151.3570    0.0170   44.1500 O.2   132  ASP132     -0.2864
     64  CB       151.2160    3.0000   44.7690 C.3   132  ASP132      0.1436
     65  CG       150.1260    3.9830   45.1960 C.2   132  ASP132      0.3671
     66  OD1      149.1130    3.5740   45.8080 O.co2 132  ASP132     -0.2456
     67  OD2      150.2830    5.1850   44.8910 O.co2 132  ASP132     -0.2456
     68  N        151.5010   13.9450   45.7130 N.3   173  THR173     -0.1203
     69  CA       150.7010   13.1040   46.5970 C.3   173  THR173      0.1994
     70  C        150.8340   13.5850   48.0380 C.2   173  THR173      0.2618
     71  O        149.8330   13.7640   48.7340 O.2   173  THR173     -0.2717
     72  CB       151.1190   11.6210   46.4700 C.3   173  THR173      0.1784
     73  OG1      151.0230   11.2140   45.1000 O.3   173  THR173     -0.2211
     74  CG2      150.2430   10.7160   47.3180 C.3   173  THR173      0.0376
     75  N        152.0760   13.8220   48.4570 N.am  174  GLY174     -0.1956
     76  CA       152.3820   14.3270   49.7890 C.3   174  GLY174      0.1869
     77  C        151.7950   15.6840   50.1060 C.2   174  GLY174      0.2309
     78  O        151.3520   15.9100   51.2320 O.2   174  GLY174     -0.2863
     79  N        147.9240   15.1420   50.5060 N.3   177  TYR177     -0.1227
     80  CA       147.7060   14.4780   51.7930 C.3   177  TYR177      0.1736
     81  C        147.9590   15.4170   52.9670 C.2   177  TYR177      0.2596
     82  O        147.3620   15.2600   54.0200 O.2   177  TYR177     -0.2718
     83  CB       148.6040   13.2460   51.9330 C.3   177  TYR177      0.0548
     84  CG       148.0050   11.9300   51.4770 C.ar  177  TYR177     -0.0200
     85  CD1      148.4360   11.3200   50.3060 C.ar  177  TYR177     -0.0009
     86  CD2      147.0350   11.2790   52.2340 C.ar  177  TYR177     -0.0009
     87  CE1      147.9050   10.1070   49.8880 C.ar  177  TYR177      0.0417
     88  CE2      146.4930   10.0620   51.8240 C.ar  177  TYR177      0.0417
     89  CZ       146.9350    9.4840   50.6530 C.ar  177  TYR177      0.1957
     90  OH       146.4130    8.2840   50.2350 O.3   177  TYR177     -0.2866
     91  N        148.8490   16.3900   52.7790 N.am  178  SER178     -0.1952
     92  CA       149.2030   17.3500   53.8320 C.3   178  SER178      0.1924
     93  C        148.1460   18.4250   54.0360 C.2   178  SER178      0.2314
     94  O        148.1780   19.1440   55.0370 O.2   178  SER178     -0.2863
     95  CB       150.5540   18.0100   53.5310 C.3   178  SER178      0.2116
     96  OG       151.5950   17.0500   53.5930 O.3   178  SER178     -0.2180
@<TRIPOS>BOND
     1    27    28    1
     2    29    28    1
     3    29    30    2
     4    28    31    1
     5    31    32    1
     6    32    33    1
     7    32    34    1
     8    63    62    2
     9    64    65    1
    10    64    61    1
    11    67    65   ar
    12    62    61    1
    13    73    72    1
    14    65    66   ar
    15    54    53    1
    16    68    69    1
    17    61    60    1
    18    53    50    1
    19    72    69    1
    20    72    74    1
    21    69    70    1
    22    47    45    1
    23    60    57   am
    24    48    46    1
    25    50    51    1
    26    50    49    1
    27    45    46    1
    28    45    42    1
    29    52    51    2
    30    51    55   am
    31    49    43   am
    32    70    75   am
    33    70    71    2
    34    57    58    2
    35    57    56    1
    36    43    44    2
    37    43    42    1
    38    75    76    1
    39    55    56    1
    40    42    41    1
    41    56    59    1
    42    41    37   am
    43    76    77    1
    44    87    85   ar
    45    87    89   ar
    46    77    78    2
    47    90    89    1
    48    85    84   ar
    49    79    80    1
    50    89    88   ar
    51    35    36    1
    52    37    38    2
    53    37    36    1
    54    40    39    1
    55    84    83    1
    56    84    86   ar
    57    36    39    1
    58    80    83    1
    59    80    81    1
    60    88    86   ar
    61    16    15    1
    62    91    81   am
    63    91    92    1
    64    14    15   ar
    65    14    12   ar
    66    81    82    2
    67    15    13   ar
    68    95    96    1
    69    95    92    1
    70    12    10   ar
    71    92    93    1
    72    93    94    2
    73    13    11   ar
    74    20    19    2
    75    10    11   ar
    76    10     9    1
    77    23    22   ar
    78    23    25   ar
    79    21    22    1
    80    21    18    1
    81    22    24   ar
    82    25    26   ar
    83    17    18    1
    84    17     7   am
    85    19    18    1
    86     9     6    1
    87     6     7    1
    88     6     5    1
    89    24    26   ar
    90     7     8    2
    91     4     3    2
    92     5     3   am
    93     3     2    1
    94     2     1    1
