@<TRIPOS>MOLECULE
tmp/2v8xA00.pdb
 159 156 0 0 0
SMALL
GASTEIGER

@<TRIPOS>ATOM
      1  N         17.9100    8.3020    7.2580 N.3    17  PHE17      -0.1241
      2  CA        17.5350    6.9170    7.5540 C.3    17  PHE17       0.1605
      3  C         16.1910    6.5390    6.9010 C.2    17  PHE17       0.2264
      4  O         15.2080    7.2320    7.0400 O.2    17  PHE17      -0.2867
      5  CB        17.5150    6.7000    9.0610 C.3    17  PHE17       0.0534
      6  CG        17.0290    5.3460    9.4930 C.ar   17  PHE17      -0.0203
      7  CD1       17.9140    4.4080    9.9590 C.ar   17  PHE17      -0.0042
      8  CD2       15.6640    5.0400    9.5110 C.ar   17  PHE17      -0.0042
      9  CE1       17.4700    3.1630   10.3860 C.ar   17  PHE17      -0.0003
     10  CE2       15.2270    3.8040    9.9390 C.ar   17  PHE17      -0.0003
     11  CZ        16.1290    2.8630   10.3700 C.ar   17  PHE17      -0.0000
     12  N         19.7870   -2.1800   11.3240 N.3    25  TRP25      -0.1227
     13  CA        19.4550   -0.7670   11.5660 C.3    25  TRP25       0.1737
     14  C         20.5390    0.1990   10.9640 C.2    25  TRP25       0.2595
     15  O         20.2210    1.1380   10.2300 O.2    25  TRP25      -0.2718
     16  CB        19.1820   -0.5170   13.0530 C.3    25  TRP25       0.0564
     17  CG        18.8870    0.8910   13.3180 C.ar   25  TRP25       0.0003
     18  CD1       17.6730    1.5040   13.2270 C.ar   25  TRP25       0.0946
     19  CD2       19.8430    1.9170   13.6510 C.ar   25  TRP25       0.0152
     20  NE1       17.8120    2.8600   13.4930 N.ar   25  TRP25      -0.2442
     21  CE2       19.1340    3.1310   13.7540 C.ar   25  TRP25       0.0810
     22  CE3       21.2390    1.9280   13.8580 C.ar   25  TRP25       0.0012
     23  CZ2       19.7820    4.3610   14.0390 C.ar   25  TRP25       0.0191
     24  CZ3       21.8680    3.1360   14.1600 C.ar   25  TRP25       0.0001
     25  CH2       21.1320    4.3320   14.2480 C.ar   25  TRP25       0.0015
     26  N         21.8140   -0.0880   11.2420 N.am   26  GLN26      -0.1979
     27  CA        22.9410    0.7330   10.8390 C.3    26  GLN26       0.1601
     28  C         23.1870    0.9010    9.3550 C.2    26  GLN26       0.2287
     29  O         23.6930    1.9550    8.9340 O.2    26  GLN26      -0.2864
     30  CB        24.1870    0.1030   11.3560 C.3    26  GLN26       0.0394
     31  CG        24.7050    0.6510   12.5810 C.3    26  GLN26       0.0908
     32  CD        26.0730    0.0420   12.8520 C.2    26  GLN26       0.2608
     33  OE1       26.2740   -0.6090   13.8840 O.2    26  GLN26      -0.2717
     34  NE2       26.9970    0.2020   11.8990 N.am   26  GLN26      -0.0878
     35  N         14.3400    9.1800    9.1490 N.3    59  ASP59      -0.1239
     36  CA        14.9570   10.1190   10.0770 C.3    59  ASP59       0.1674
     37  C         15.8350   11.0990    9.2850 C.2    59  ASP59       0.2266
     38  O         16.4090   10.7350    8.2530 O.2    59  ASP59      -0.2867
     39  CB        15.9360    9.4530   11.0610 C.3    59  ASP59       0.1410
     40  CG        15.3280    8.3620   11.8980 C.2    59  ASP59       0.3668
     41  OD1       14.1040    8.2180   12.0100 O.co2  59  ASP59      -0.2456
     42  OD2       16.1250    7.6160   12.5010 O.co2  59  ASP59      -0.2456
     43  N         25.7060    9.0050   13.9180 N.3    69  PRO69      -0.2102
     44  CA        24.4290    9.2060   14.5860 C.3    69  PRO69       0.1504
     45  C         23.8300    7.9270   15.1430 C.2    69  PRO69       0.2576
     46  O         22.6680    7.5730   14.8650 O.2    69  PRO69      -0.2718
     47  CB        23.5560    9.8350   13.4980 C.3    69  PRO69       0.0282
     48  CG        24.0130    9.2360   12.2860 C.3    69  PRO69       0.0208
     49  CD        25.5290    9.0320   12.4550 C.3    69  PRO69       0.0893
     50  N         24.5970    7.2870   16.0080 N.am   70  MET70      -0.1966
     51  CA        24.1500    6.0460   16.6130 C.3    70  MET70       0.1736
     52  C         24.6360    5.9640   18.0550 C.2    70  MET70       0.2616
     53  O         25.7070    6.4580   18.3350 O.2    70  MET70      -0.2715
     54  CB        24.6310    4.8630   15.7460 C.3    70  MET70       0.0427
     55  CG        26.1430    4.7210   15.5970 C.3    70  MET70       0.0599
     56  SD        26.6570    3.3480   14.5080 S.3    70  MET70      -0.1393
     57  CE        25.8400    3.8230   12.9790 C.3    70  MET70       0.0692
     58  N         23.8580    5.3430   18.9610 N.am   71  TRP71      -0.1960
     59  CA        24.2640    5.2340   20.3890 C.3    71  TRP71       0.1771
     60  C         25.5810    4.4610   20.6510 C.2    71  TRP71       0.2619
     61  O         26.1120    4.5610   21.7510 O.2    71  TRP71      -0.2715
     62  CB        23.1140    4.7690   21.3570 C.3    71  TRP71       0.0590
     63  CG        22.5930    3.3340   21.1490 C.ar   71  TRP71       0.0006
     64  CD1       23.3470    2.1970   20.9440 C.ar   71  TRP71       0.0946
     65  CD2       21.2120    2.9060   21.1170 C.ar   71  TRP71       0.0152
     66  NE1       22.5220    1.1100   20.7650 N.ar   71  TRP71      -0.2442
     67  CE2       21.2090    1.5140   20.8720 C.ar   71  TRP71       0.0810
     68  CE3       19.9780    3.5630   21.2890 C.ar   71  TRP71       0.0012
     69  CZ2       20.0040    0.7590   20.7900 C.ar   71  TRP71       0.0191
     70  CZ3       18.7810    2.8140   21.1880 C.ar   71  TRP71       0.0001
     71  CH2       18.8090    1.4330   20.9430 C.ar   71  TRP71       0.0015
     72  N         26.0790    3.7110   19.6580 N.am   72  GLU72      -0.1977
     73  CA        27.3690    2.9820   19.7270 C.3    72  GLU72       0.1602
     74  C         28.6010    3.8680   19.6970 C.2    72  GLU72       0.2287
     75  O         29.6920    3.4230   20.0290 O.2    72  GLU72      -0.2864
     76  CB        27.5490    2.0320   18.5230 C.3    72  GLU72       0.0415
     77  CG        26.6980    0.7970   18.5090 C.3    72  GLU72       0.1163
     78  CD        25.3170    0.9710   17.8640 C.2    72  GLU72       0.3649
     79  OE1       24.7340    2.1000   17.7770 O.co2  72  GLU72      -0.2457
     80  OE2       24.7950   -0.0760   17.4610 O.co2  72  GLU72      -0.2457
     81  N         19.4910   12.1250   25.2870 N.3    81  ARG81      -0.1245
     82  CA        18.8470   13.0160   24.3620 C.3    81  ARG81       0.1563
     83  C         17.7860   13.7800   25.1370 C.2    81  ARG81       0.2260
     84  O         17.1860   13.2470   26.1020 O.2    81  ARG81      -0.2867
     85  CB        18.1770   12.1840   23.2600 C.3    81  ARG81       0.0307
     86  CG        16.9590   11.4410   23.8150 C.3    81  ARG81       0.0489
     87  CD        16.7970   10.0500   23.2830 C.3    81  ARG81       0.2205
     88  NE        16.0920   10.0540   22.0230 N.pl3  81  ARG81      -0.0865
     89  CZ        15.1390    9.2020   21.6520 C.cat  81  ARG81       0.5346
     90  NH1       14.6960    8.2540   22.4560 N.pl3  81  ARG81       0.1354
     91  NH2       14.5680    9.3580   20.4630 N.pl3  81  ARG81       0.1354
     92  N         12.5790   12.1130   13.9290 N.3   124  ASN124     -0.1240
     93  CA        11.9380   10.8630   13.5450 C.3   124  ASN124      0.1653
     94  C         10.5720   11.1810   12.9920 C.2   124  ASN124      0.2266
     95  O          9.7150   11.7340   13.6900 O.2   124  ASN124     -0.2867
     96  CB        11.7630    9.9060   14.7410 C.3   124  ASN124      0.1155
     97  CG        13.0140    9.7500   15.5790 C.2   124  ASN124      0.2627
     98  OD1       13.0520   10.1630   16.7370 O.2   124  ASN124     -0.2716
     99  ND2       14.0380    9.1650   15.0080 N.am  124  ASN124     -0.0877
    100  N          7.1950    9.6290   12.1090 N.3   126  ARG126     -0.1245
    101  CA         6.4790    8.4090   12.4930 C.3   126  ARG126      0.1563
    102  C          4.9860    8.6090   12.3630 C.2   126  ARG126      0.2260
    103  O          4.4620    9.6280   12.8160 O.2   126  ARG126     -0.2867
    104  CB         6.8180    8.0350   13.9490 C.3   126  ARG126      0.0307
    105  CG         8.2660    7.6070   14.2160 C.3   126  ARG126      0.0489
    106  CD         8.7400    6.4620   13.2700 C.3   126  ARG126      0.2205
    107  NE        10.1480    6.1130   13.5060 N.pl3 126  ARG126     -0.0865
    108  CZ        11.2010    6.6290   12.8750 C.cat 126  ARG126      0.5346
    109  NH1       11.0550    7.5250   11.9050 N.pl3 126  ARG126      0.1354
    110  NH2       12.4310    6.2310   13.2070 N.pl3 126  ARG126      0.1354
    111  N          2.6690    7.2240   14.0920 N.3   128  LYS128     -0.1245
    112  CA         2.1990    7.2680   15.4830 C.3   128  LYS128      0.1561
    113  C          2.4720    8.5910   16.2290 C.2   128  LYS128      0.2260
    114  O          1.8180    8.9020   17.2460 O.2   128  LYS128     -0.2867
    115  CB         2.9110    6.1410   16.2500 C.3   128  LYS128      0.0271
    116  CG         4.4480    6.1750   16.0280 C.3   128  LYS128      0.0035
    117  CD         5.2740    5.3200   17.0320 C.3   128  LYS128      0.0206
    118  CE         6.8050    5.6260   16.8960 C.3   128  LYS128      0.1093
    119  NZ         7.0400    7.0800   17.3160 N.3   128  LYS128     -0.1314
    120  N          9.1090   12.7690   16.4390 N.3   131  LYS131     -0.1245
    121  CA         9.9610   13.1540   17.5470 C.3   131  LYS131      0.1561
    122  C         11.1650   13.9520   17.0320 C.2   131  LYS131      0.2260
    123  O         11.6140   13.7250   15.9240 O.2   131  LYS131     -0.2867
    124  CB        10.4040   11.9210   18.3530 C.3   131  LYS131      0.0271
    125  CG         9.2680   11.1870   19.0780 C.3   131  LYS131      0.0035
    126  CD         9.6950    9.8190   19.5800 C.3   131  LYS131      0.0206
    127  CE        10.1470    8.9800   18.4290 C.3   131  LYS131      0.1093
    128  NZ        10.4100    7.5850   18.8760 N.3   131  LYS131     -0.1314
    129  N         21.0920   15.2540   21.0410 N.3   135  TRP135     -0.1241
    130  CA        21.9280   14.2830   21.7650 C.3   135  TRP135      0.1605
    131  C         23.1120   15.0190   22.3290 C.2   135  TRP135      0.2264
    132  O         23.6810   15.8810   21.6600 O.2   135  TRP135     -0.2867
    133  CB        22.4480   13.1680   20.8330 C.3   135  TRP135      0.0550
    134  CG        21.3900   12.2780   20.2310 C.ar  135  TRP135      0.0003
    135  CD1       20.0690   12.5570   20.0780 C.ar  135  TRP135      0.0946
    136  CD2       21.5960   10.9800   19.6520 C.ar  135  TRP135      0.0152
    137  NE1       19.4260   11.5140   19.4300 N.ar  135  TRP135     -0.2442
    138  CE2       20.3450   10.5280   19.1810 C.ar  135  TRP135      0.0810
    139  CE3       22.7300   10.1620   19.4660 C.ar  135  TRP135      0.0012
    140  CZ2       20.1970    9.3180   18.5340 C.ar  135  TRP135      0.0191
    141  CZ3       22.5720    8.9310   18.8560 C.ar  135  TRP135      0.0001
    142  CH2       21.3240    8.5150   18.4110 C.ar  135  TRP135      0.0015
    143  N         20.9900    7.1160   26.7920 N.3   169  HIS169     -0.1241
    144  CA        20.9300    6.0980   25.7170 C.3   169  HIS169      0.1621
    145  C         21.0780    4.6930   26.2780 C.2   169  HIS169      0.2264
    146  O         20.5990    3.7340   25.6590 O.2   169  HIS169     -0.2867
    147  CB        22.0030    6.3200   24.6390 C.3   169  HIS169      0.0745
    148  CG        21.8850    7.6170   23.8940 C.ar  169  HIS169      0.0817
    149  ND1       20.6880    8.1150   23.4240 N.ar  169  HIS169     -0.2268
    150  CD2       22.8320    8.5120   23.5320 C.ar  169  HIS169      0.1154
    151  CE1       20.9080    9.2590   22.8110 C.ar  169  HIS169      0.1986
    152  NE2       22.2020    9.5150   22.8490 N.ar  169  HIS169     -0.2212
    153  N         17.5950    3.8370   27.2680 N.3   172  THR172     -0.1218
    154  CA        16.9230    3.5890   25.9850 C.3   172  THR172      0.1862
    155  C         17.2790    2.2460   25.3080 C.2   172  THR172      0.2287
    156  O         16.3860    1.5190   24.8340 O.2   172  THR172     -0.2866
    157  CB        17.1680    4.7580   24.9820 C.3   172  THR172      0.1770
    158  OG1       16.9390    6.0160   25.6330 O.3   172  THR172     -0.2211
    159  CG2       16.2380    4.6550   23.8130 C.3   172  THR172      0.0375
@<TRIPOS>BOND
     1     3     4    2
     2     3     2    1
     3     1     2    1
     4     2     5    1
     5    38    37    2
     6    29    28    2
     7     5     6    1
     8    35    36    1
     9    37    36    1
    10    28    27    1
    11     6     8   ar
    12     6     7   ar
    13     8    10   ar
    14    10    11   ar
    15     7     9   ar
    16    36    39    1
    17    15    14    2
    18    11     9   ar
    19    27    26    1
    20    27    30    1
    21    14    26   am
    22    14    13    1
    23    39    40    1
    24    12    13    1
    25    30    31    1
    26    13    16    1
    27    40    41   ar
    28    40    42   ar
    29    34    32   am
    30   109   108    1
    31   100   101    1
    32    48    49    1
    33    48    47    1
    34   102   101    1
    35   102   103    2
    36    49    43    1
    37   101   104    1
    38    31    32    1
    39    32    33    2
    40   108   110    1
    41   108   107    2
    42    57    56    1
    43    94    93    1
    44    94    95    2
    45    16    17    1
    46    18    17   ar
    47    18    20   ar
    48   106   107    1
    49   106   105    1
    50    17    19   ar
    51    20    21   ar
    52    47    44    1
    53    93    92    1
    54    93    96    1
    55    19    21   ar
    56    19    22   ar
    57    21    23   ar
    58    22    24   ar
    59    43    44    1
    60   104   105    1
    61    23    25   ar
    62   111   112    1
    63    24    25   ar
    64    56    55    1
    65    44    45    1
    66    96    97    1
    67    46    45    2
    68    99    97   am
    69    45    50   am
    70   112   113    1
    71   112   115    1
    72    97    98    2
    73    55    54    1
    74    54    51    1
    75   123   122    2
    76    50    51    1
    77   116   115    1
    78   116   117    1
    79   113   114    2
    80   120   121    1
    81    51    52    1
    82   118   117    1
    83   118   119    1
    84   122   121    1
    85    80    78   ar
    86   121   124    1
    87    79    78   ar
    88    78    77    1
    89    52    53    2
    90    52    58   am
    91   124   125    1
    92   142   140   ar
    93   142   141   ar
    94   127   128    1
    95   127   126    1
    96    77    76    1
    97    76    73    1
    98   140   138   ar
    99   141   139   ar
   100    58    59    1
   101   125   126    1
   102   138   137   ar
   103   138   136   ar
   104   137   135   ar
   105   139   136   ar
   106   136   134   ar
   107    72    73    1
   108    72    60   am
   109    74    73    1
   110    74    75    2
   111   135   134   ar
   112   134   133    1
   113    59    60    1
   114    59    62    1
   115    91    89    1
   116    60    61    2
   117    66    67   ar
   118    66    64   ar
   119    69    67   ar
   120    69    71   ar
   121   133   130    1
   122    67    65   ar
   123    71    70   ar
   124    64    63   ar
   125   129   130    1
   126    65    63   ar
   127    65    68   ar
   128    63    62    1
   129    70    68   ar
   130    89    88    2
   131    89    90    1
   132   132   131    2
   133   130   131    1
   134    88    87    1
   135   151   152   ar
   136   151   149   ar
   137   152   150   ar
   138    85    86    1
   139    85    82    1
   140    87    86    1
   141   149   148   ar
   142   150   148   ar
   143   159   157    1
   144   148   147    1
   145    82    83    1
   146    82    81    1
   147   147   144    1
   148   156   155    2
   149   157   158    1
   150   157   154    1
   151    83    84    2
   152   155   154    1
   153   146   145    2
   154   144   145    1
   155   144   143    1
   156   154   153    1
