@<TRIPOS>MOLECULE
tmp/2v95A00.pdb
 128 123 0 0 0
SMALL
GASTEIGER

@<TRIPOS>ATOM
      1  N         48.6720  -10.8320   18.7760 N.3     7  ALA7       -0.1231
      2  CA        47.9820  -10.8850   17.4800 C.3     7  ALA7        0.1679
      3  C         46.6510  -11.6470   17.5300 C.2     7  ALA7        0.2434
      4  O         45.6290  -11.1270   17.1040 O.2     7  ALA7       -0.2733
      5  CB        48.9010  -11.5290   16.4140 C.3     7  ALA7        0.0304
      6  N         46.6670  -12.8940   18.0150 N.am    8  PRO8       -0.2729
      7  CA        45.4150  -13.6640   17.9860 C.3     8  PRO8        0.1401
      8  C         44.2500  -12.9390   18.6630 C.2     8  PRO8        0.2269
      9  O         43.1760  -12.8340   18.0690 O.2     8  PRO8       -0.2865
     10  CB        45.7770  -14.9520   18.7210 C.3     8  PRO8        0.0296
     11  CG        47.2470  -15.0660   18.5780 C.3     8  PRO8        0.0237
     12  CD        47.7740  -13.6730   18.5870 C.3     8  PRO8        0.0939
     13  N         43.5910   -9.3770   16.7770 N.3    11  VAL11      -0.1245
     14  CA        42.9940   -9.5730   15.4490 C.3    11  VAL11       0.1561
     15  C         41.5910  -10.2590   15.4770 C.2    11  VAL11       0.2260
     16  O         40.7500   -9.9870   14.6320 O.2    11  VAL11      -0.2867
     17  CB        44.0010  -10.3220   14.5230 C.3    11  VAL11       0.0252
     18  CG1       43.3900  -10.6430   13.2120 C.3    11  VAL11       0.0019
     19  CG2       45.2910   -9.4080   14.3240 C.3    11  VAL11       0.0019
     20  N         47.1830   -8.0690   -3.1480 N.3   214  GLN214     -0.1245
     21  CA        48.0790   -7.7340   -2.0300 C.3   214  GLN214      0.1566
     22  C         49.1190   -6.7240   -2.5170 C.2   214  GLN214      0.2260
     23  O         49.8880   -7.0030   -3.4260 O.2   214  GLN214     -0.2867
     24  CB        48.7740   -8.9810   -1.4530 C.3   214  GLN214      0.0367
     25  CG        49.6570   -8.6620   -0.2370 C.3   214  GLN214      0.0905
     26  CD        50.0150   -9.8800    0.5800 C.2   214  GLN214      0.2608
     27  OE1       49.9730  -11.0170    0.0880 O.2   214  GLN214     -0.2717
     28  NE2       50.4070   -9.6500    1.8380 N.am  214  GLN214     -0.0878
     29  N         51.4900   -3.9700    4.7890 N.3   222  THR222     -0.1218
     30  CA        50.9200   -4.6170    3.6100 C.3   222  THR222      0.1862
     31  C         49.4160   -4.3240    3.5600 C.2   222  THR222      0.2287
     32  O         48.7630   -4.1690    4.6080 O.2   222  THR222     -0.2866
     33  CB        51.2280   -6.1310    3.6060 C.3   222  THR222      0.1770
     34  OG1       50.9390   -6.7060    2.3220 O.3   222  THR222     -0.2211
     35  CG2       50.4550   -6.8660    4.7080 C.3   222  THR222      0.0375
     36  N         45.6750   -5.5600    1.8810 N.3   224  PHE224     -0.1241
     37  CA        44.8070   -6.4170    1.1110 C.3   224  PHE224      0.1605
     38  C         43.6300   -5.6180    0.5630 C.2   224  PHE224      0.2264
     39  O         42.8210   -5.0810    1.3100 O.2   224  PHE224     -0.2867
     40  CB        44.3060   -7.6120    1.9300 C.3   224  PHE224      0.0534
     41  CG        45.3700   -8.5820    2.3070 C.ar  224  PHE224     -0.0203
     42  CD1       46.1220   -8.4010    3.4610 C.ar  224  PHE224     -0.0042
     43  CD2       45.6040   -9.7120    1.5370 C.ar  224  PHE224     -0.0042
     44  CE1       47.1020   -9.3180    3.8140 C.ar  224  PHE224     -0.0003
     45  CE2       46.5560  -10.6200    1.8990 C.ar  224  PHE224     -0.0003
     46  CZ        47.3080  -10.4240    3.0320 C.ar  224  PHE224     -0.0000
     47  N         40.5250  -14.3210   11.3130 N.3   242  ARG242     -0.1245
     48  CA        41.9490  -14.6450   11.3390 C.3   242  ARG242      0.1563
     49  C         42.1710  -15.9490   10.5560 C.2   242  ARG242      0.2260
     50  O         43.1600  -16.1180    9.8580 O.2   242  ARG242     -0.2867
     51  CB        42.4280  -14.7550   12.8060 C.3   242  ARG242      0.0307
     52  CG        43.8200  -15.2810   12.9990 C.3   242  ARG242      0.0489
     53  CD        44.3340  -15.0320   14.4320 C.3   242  ARG242      0.2205
     54  NE        43.4600  -15.6140   15.4520 N.pl3 242  ARG242     -0.0865
     55  CZ        43.7000  -16.6990   16.1820 C.cat 242  ARG242      0.5346
     56  NH1       44.8420  -17.3680   16.1020 N.pl3 242  ARG242      0.1354
     57  NH2       42.7890  -17.0930   17.0590 N.pl3 242  ARG242      0.1354
     58  N         41.8210  -14.7700    6.5430 N.3   245  ILE245     -0.1231
     59  CA        43.0010  -13.9890    6.1130 C.3   245  ILE245      0.1692
     60  C         44.3290  -14.7670    6.0770 C.2   245  ILE245      0.2592
     61  O         45.1920  -14.4690    5.2360 O.2   245  ILE245     -0.2718
     62  CB        43.1850  -12.6650    6.9340 C.3   245  ILE245      0.0266
     63  CG1       44.2090  -11.7330    6.2600 C.3   245  ILE245      0.0019
     64  CG2       43.6500  -12.9570    8.3420 C.3   245  ILE245      0.0020
     65  CD1       43.5810  -10.6840    5.3380 C.3   245  ILE245      0.0001
     66  N         44.4880  -15.7480    6.9730 N.am  246  ASP246     -0.1974
     67  CA        45.6200  -16.6640    6.9590 C.3   246  ASP246      0.1709
     68  C         45.6510  -17.5080    5.6920 C.2   246  ASP246      0.2293
     69  O         46.7110  -17.7790    5.1290 O.2   246  ASP246     -0.2864
     70  CB        45.5220  -17.6090    8.1670 C.3   246  ASP246      0.1436
     71  CG        46.7850  -18.3940    8.3970 C.2   246  ASP246      0.3671
     72  OD1       47.8220  -17.7650    8.6810 O.co2 246  ASP246     -0.2456
     73  OD2       46.7390  -19.6310    8.2960 O.co2 246  ASP246     -0.2456
     74  N         46.3300  -15.0340    2.6660 N.3   249  GLY249     -0.1210
     75  CA        47.7460  -14.6750    2.6690 C.3   249  GLY249      0.1956
     76  C         48.6360  -15.7850    2.1130 C.2   249  GLY249      0.2611
     77  O         49.6510  -15.5160    1.4900 O.2   249  GLY249     -0.2717
     78  N         48.2540  -17.0330    2.3500 N.am  250  LYS250     -0.1979
     79  CA        49.0470  -18.1850    1.8830 C.3   250  LYS250      0.1596
     80  C         48.8060  -18.5610    0.4180 C.2   250  LYS250      0.2287
     81  O         49.5940  -19.2960   -0.1620 O.2   250  LYS250     -0.2864
     82  CB        48.8170  -19.3950    2.7860 C.3   250  LYS250      0.0298
     83  CG        49.3750  -19.2050    4.1930 C.3   250  LYS250      0.0038
     84  CD        49.2050  -20.4530    5.0620 C.3   250  LYS250      0.0206
     85  CE        49.4900  -20.1090    6.5200 C.3   250  LYS250      0.1093
     86  NZ        49.3220  -21.2560    7.4480 N.3   250  LYS250     -0.1314
     87  N         47.7310   -4.3790    7.3900 N.3   325  PHE325     -0.1227
     88  CA        48.3510   -5.1150    8.4810 C.3   325  PHE325      0.1736
     89  C         49.8360   -4.8530    8.5640 C.2   325  PHE325      0.2595
     90  O         50.4960   -4.5580    7.5560 O.2   325  PHE325     -0.2718
     91  CB        48.2240   -6.6090    8.2630 C.3   325  PHE325      0.0547
     92  CG        46.8250   -7.1650    8.3580 C.ar  325  PHE325     -0.0202
     93  CD1       46.0760   -7.3860    7.2070 C.ar  325  PHE325     -0.0042
     94  CD2       46.3010   -7.5550    9.5900 C.ar  325  PHE325     -0.0042
     95  CE1       44.8060   -7.9530    7.2820 C.ar  325  PHE325     -0.0003
     96  CE2       45.0400   -8.1420    9.6890 C.ar  325  PHE325     -0.0003
     97  CZ        44.2850   -8.3480    8.5270 C.ar  325  PHE325     -0.0000
     98  N         50.3790   -5.0510    9.7590 N.am  326  ASP326     -0.1960
     99  CA        51.8270   -5.1270    9.9490 C.3   326  ASP326      0.1840
    100  C         52.2570   -6.5930    9.8900 C.2   326  ASP326      0.2621
    101  O         51.8340   -7.4320   10.6830 O.2   326  ASP326     -0.2715
    102  CB        52.2370   -4.4480   11.2620 C.3   326  ASP326      0.1450
    103  CG        53.7020   -4.6200   11.5920 C.2   326  ASP326      0.3671
    104  OD1       54.5180   -4.8410   10.6770 O.co2 326  ASP326     -0.2456
    105  OD2       54.0330   -4.5370   12.7930 O.co2 326  ASP326     -0.2456
    106  N         53.1000   -6.9110    8.9190 N.am  327  LYS327     -0.1977
    107  CA        53.5820   -8.2750    8.7430 C.3   327  LYS327      0.1596
    108  C         54.4610   -8.7730    9.8870 C.2   327  LYS327      0.2287
    109  O         54.5830   -9.9770   10.0850 O.2   327  LYS327     -0.2864
    110  CB        54.3450   -8.3870    7.4230 C.3   327  LYS327      0.0298
    111  CG        53.4490   -8.2370    6.2030 C.3   327  LYS327      0.0038
    112  CD        53.9320   -9.0880    5.0330 C.3   327  LYS327      0.0206
    113  CE        55.0440   -8.4180    4.2680 C.3   327  LYS327      0.1093
    114  NZ        55.7400   -9.3860    3.3040 N.3   327  LYS327     -0.1314
    115  N         51.8420   -8.6970   13.2250 N.3   330  TRP330     -0.1241
    116  CA        50.5100   -9.2100   12.8060 C.3   330  TRP330      0.1605
    117  C         49.3450   -8.3190   13.2370 C.2   330  TRP330      0.2264
    118  O         48.1930   -8.7500   13.2890 O.2   330  TRP330     -0.2867
    119  CB        50.3180  -10.6690   13.2380 C.3   330  TRP330      0.0550
    120  CG        51.1420  -11.6190   12.4730 C.ar  330  TRP330      0.0003
    121  CD1       51.7900  -11.3900   11.2820 C.ar  330  TRP330      0.0946
    122  CD2       51.3780  -12.9880   12.8000 C.ar  330  TRP330      0.0152
    123  NE1       52.4230  -12.5350   10.8710 N.ar  330  TRP330     -0.2442
    124  CE2       52.1900  -13.5260   11.7850 C.ar  330  TRP330      0.0810
    125  CE3       50.9970  -13.8070   13.8660 C.ar  330  TRP330      0.0012
    126  CZ2       52.6180  -14.8400   11.7980 C.ar  330  TRP330      0.0191
    127  CZ3       51.4210  -15.1170   13.8800 C.ar  330  TRP330      0.0001
    128  CH2       52.2240  -15.6260   12.8510 C.ar  330  TRP330      0.0015
@<TRIPOS>BOND
     1    23    22    2
     2    20    21    1
     3    22    21    1
     4    21    24    1
     5    24    25    1
     6    25    26    1
     7    81    80    2
     8    27    26    2
     9    80    79    1
    10    38    37    1
    11    38    39    2
    12    26    28   am
    13    37    36    1
    14    37    40    1
    15    77    76    2
    16    43    45   ar
    17    43    41   ar
    18    79    78    1
    19    79    82    1
    20    45    46   ar
    21    40    41    1
    22    76    78   am
    23    76    75    1
    24    41    42   ar
    25    34    33    1
    26    74    75    1
    27    82    83    1
    28    46    44   ar
    29   114   113    1
    30    42    44   ar
    31    31    30    1
    32    31    32    2
    33    33    30    1
    34    33    35    1
    35    30    29    1
    36    83    84    1
    37   113   112    1
    38   112   111    1
    39    84    85    1
    40    69    68    2
    41    61    60    2
    42    65    63    1
    43    68    67    1
    44    60    59    1
    45    60    66   am
    46    59    58    1
    47    59    62    1
    48   111   110    1
    49    63    62    1
    50    85    86    1
    51    62    64    1
    52    67    66    1
    53    67    70    1
    54    93    95   ar
    55    93    92   ar
    56    95    97   ar
    57    87    88    1
    58   110   107    1
    59    90    89    2
    60    70    71    1
    61    91    92    1
    62    91    88    1
    63    73    71   ar
    64    92    94   ar
    65    71    72   ar
    66    88    89    1
    67    97    96   ar
    68    89    98   am
    69   107   106    1
    70   107   108    1
    71   106   100   am
    72    94    96   ar
    73    98    99    1
    74    50    49    2
    75   108   109    2
    76   100    99    1
    77   100   101    2
    78    99   102    1
    79    49    48    1
    80   104   103   ar
    81   123   121   ar
    82   123   124   ar
    83   102   103    1
    84   121   120   ar
    85    47    48    1
    86    48    51    1
    87   103   105   ar
    88   124   126   ar
    89   124   122   ar
    90   126   128   ar
    91   120   122   ar
    92   120   119    1
    93   122   125   ar
    94   116   115    1
    95   116   117    1
    96   116   119    1
    97    51    52    1
    98   128   127   ar
    99    52    53    1
   100    18    17    1
   101   117   118    2
   102   125   127   ar
   103    19    17    1
   104    53    54    1
   105    17    14    1
   106    16    15    2
   107    14    15    1
   108    14    13    1
   109    54    55    2
   110    56    55    1
   111    55    57    1
   112     5     2    1
   113     4     3    2
   114     2     3    1
   115     2     1    1
   116     3     6   am
   117     7     6    1
   118     7     8    1
   119     7    10    1
   120     6    12    1
   121     9     8    2
   122    11    12    1
   123    11    10    1
