@<TRIPOS>MOLECULE
tmp/2v97A01.pdb
 139 137 0 0 0
SMALL
GASTEIGER

@<TRIPOS>ATOM
      1  N         98.7180   51.3340   14.5620 N.3    69  ASP69      -0.1239
      2  CA        99.6010   50.7640   15.5650 C.3    69  ASP69       0.1674
      3  C        100.7900   50.0980   14.8790 C.2    69  ASP69       0.2266
      4  O        100.6160   49.3690   13.9120 O.2    69  ASP69      -0.2867
      5  CB        98.8020   49.7570   16.3910 C.3    69  ASP69       0.1410
      6  CG        99.6570   48.9380   17.3250 C.2    69  ASP69       0.3668
      7  OD1      100.6500   49.4540   17.8720 O.co2  69  ASP69      -0.2456
      8  OD2       99.3070   47.7610   17.5330 O.co2  69  ASP69      -0.2456
      9  N         97.8910   42.3510   16.9290 N.3    78  SER78      -0.1217
     10  CA        97.7180   43.8000   16.9470 C.3    78  SER78       0.1889
     11  C         97.2720   44.3190   15.5910 C.2    78  SER78       0.2288
     12  O         96.4520   45.2300   15.5030 O.2    78  SER78      -0.2866
     13  CB        99.0270   44.4690   17.3440 C.3    78  SER78       0.2089
     14  OG       100.0770   43.9500   16.5550 O.3    78  SER78      -0.2183
     15  N         93.6900   44.5840   14.3280 N.3    81  TRP81      -0.1241
     16  CA        92.8840   45.7350   14.7060 C.3    81  TRP81       0.1605
     17  C         93.1870   46.9400   13.8260 C.2    81  TRP81       0.2264
     18  O         92.4350   47.9150   13.8490 O.2    81  TRP81      -0.2867
     19  CB        93.1180   46.1290   16.1690 C.3    81  TRP81       0.0550
     20  CG        92.9210   45.0070   17.1640 C.ar   81  TRP81       0.0003
     21  CD1       93.8830   44.3910   17.9040 C.ar   81  TRP81       0.0946
     22  CD2       91.6840   44.3740   17.5040 C.ar   81  TRP81       0.0152
     23  NE1       93.3280   43.4120   18.6810 N.ar   81  TRP81      -0.2442
     24  CE2       91.9770   43.3770   18.4540 C.ar   81  TRP81       0.0810
     25  CE3       90.3520   44.5560   17.0960 C.ar   81  TRP81       0.0012
     26  CZ2       90.9910   42.5550   19.0050 C.ar   81  TRP81       0.0191
     27  CZ3       89.3670   43.7340   17.6450 C.ar   81  TRP81       0.0001
     28  CH2       89.6960   42.7450   18.5910 C.ar   81  TRP81       0.0015
     29  N         87.8890   51.4540   19.8510 N.3   115  GLY115     -0.1210
     30  CA        89.2620   51.8150   19.5920 C.3   115  GLY115      0.1956
     31  C         89.4310   53.2380   20.1330 C.2   115  GLY115      0.2612
     32  O         89.9860   54.1240   19.4680 O.2   115  GLY115     -0.2717
     33  N         88.9110   53.4390   21.3380 N.am  116  GLY116     -0.1956
     34  CA        89.0270   54.7100   22.0260 C.3   116  GLY116      0.1869
     35  C         88.6530   55.9780   21.2900 C.2   116  GLY116      0.2309
     36  O         89.1470   57.0380   21.6340 O.2   116  GLY116     -0.2863
     37  N         89.7500   57.0570   18.7800 N.3   118  TYR118     -0.1227
     38  CA        90.8730   57.5250   17.9540 C.3   118  TYR118      0.1736
     39  C         91.1280   56.5820   16.7830 C.2   118  TYR118      0.2596
     40  O         91.8510   56.9300   15.8730 O.2   118  TYR118     -0.2718
     41  CB        92.1590   57.6540   18.7840 C.3   118  TYR118      0.0548
     42  CG        92.9570   56.3670   18.9570 C.ar  118  TYR118     -0.0200
     43  CD1       93.9500   56.0070   18.0530 C.ar  118  TYR118     -0.0009
     44  CD2       92.6890   55.4990   20.0120 C.ar  118  TYR118     -0.0009
     45  CE1       94.6500   54.8170   18.1880 C.ar  118  TYR118      0.0417
     46  CE2       93.3740   54.3060   20.1650 C.ar  118  TYR118      0.0417
     47  CZ        94.3500   53.9680   19.2530 C.ar  118  TYR118      0.1957
     48  OH        95.0130   52.7590   19.4130 O.3   118  TYR118     -0.2866
     49  N         90.5530   55.3790   16.8230 N.am  119  SER119     -0.1952
     50  CA        90.7270   54.3800   15.7540 C.3   119  SER119      0.1924
     51  C         89.5630   53.4120   15.6310 C.2   119  SER119      0.2314
     52  O         88.5490   53.5440   16.3300 O.2   119  SER119     -0.2863
     53  CB        91.9980   53.5710   15.9770 C.3   119  SER119      0.2116
     54  OG        91.9130   52.8640   17.1890 O.3   119  SER119     -0.2180
     55  N         81.7390   47.4260   21.2680 N.3   196  GLU196     -0.1231
     56  CA        82.6860   47.1420   22.3230 C.3   196  GLU196      0.1699
     57  C         83.6140   48.3130   22.5410 C.2   196  GLU196      0.2592
     58  O         83.9540   49.0040   21.6100 O.2   196  GLU196     -0.2718
     59  CB        83.4820   45.8930   21.9620 C.3   196  GLU196      0.0402
     60  CG        84.6170   45.5420   22.9210 C.3   196  GLU196      0.1161
     61  CD        85.9590   46.0690   22.4330 C.2   196  GLU196      0.3649
     62  OE1       85.9890   46.5520   21.2900 O.co2 196  GLU196     -0.2457
     63  OE2       86.9750   45.9920   23.1570 O.co2 196  GLU196     -0.2457
     64  N         83.9970   48.5440   23.7820 N.am  197  SER197     -0.1952
     65  CA        84.9170   49.6040   24.0620 C.3   197  SER197      0.1924
     66  C         84.3270   50.9790   23.7210 C.2   197  SER197      0.2314
     67  O         83.2360   51.3130   24.1840 O.2   197  SER197     -0.2863
     68  CB        86.2090   49.3340   23.2910 C.3   197  SER197      0.2116
     69  OG        87.2970   49.6750   24.1200 O.3   197  SER197     -0.2180
     70  N         95.3450   54.2200   28.5260 N.3   285  PHE285     -0.1241
     71  CA        93.8820   54.1810   28.4840 C.3   285  PHE285      0.1605
     72  C         93.2310   55.5730   28.5110 C.2   285  PHE285      0.2264
     73  O         92.1780   55.7870   29.1380 O.2   285  PHE285     -0.2867
     74  CB        93.3150   53.3240   29.6150 C.3   285  PHE285      0.0534
     75  CG        92.1610   52.4690   29.1810 C.ar  285  PHE285     -0.0203
     76  CD1       91.1680   52.9890   28.3400 C.ar  285  PHE285     -0.0042
     77  CD2       92.0750   51.1390   29.5740 C.ar  285  PHE285     -0.0042
     78  CE1       90.1280   52.2120   27.8890 C.ar  285  PHE285     -0.0003
     79  CE2       91.0230   50.3370   29.1270 C.ar  285  PHE285     -0.0003
     80  CZ        90.0410   50.8760   28.2790 C.ar  285  PHE285     -0.0000
     81  N         92.6080   58.8800   25.5790 N.3   287  PHE287     -0.1241
     82  CA        92.6220   59.2460   24.1640 C.3   287  PHE287      0.1605
     83  C         92.2880   60.7190   23.9830 C.2   287  PHE287      0.2264
     84  O         91.4330   61.2620   24.6640 O.2   287  PHE287     -0.2867
     85  CB        91.6360   58.3590   23.4630 C.3   287  PHE287      0.0534
     86  CG        91.6850   56.9270   23.9520 C.ar  287  PHE287     -0.0203
     87  CD1       92.7170   56.0780   23.5600 C.ar  287  PHE287     -0.0042
     88  CD2       90.7270   56.4520   24.8540 C.ar  287  PHE287     -0.0042
     89  CE1       92.7990   54.7870   24.0580 C.ar  287  PHE287     -0.0003
     90  CE2       90.8050   55.1600   25.3570 C.ar  287  PHE287     -0.0003
     91  CZ        91.8430   54.3250   24.9600 C.ar  287  PHE287     -0.0000
     92  N         96.1050   44.7510   27.9360 N.3   327  PHE327     -0.1227
     93  CA        96.4770   45.3280   26.6430 C.3   327  PHE327      0.1736
     94  C         97.1600   46.6820   26.8710 C.2   327  PHE327      0.2595
     95  O         98.1960   46.9940   26.2530 O.2   327  PHE327     -0.2718
     96  CB        95.2410   45.5400   25.7670 C.3   327  PHE327      0.0547
     97  CG        95.4690   45.2690   24.3000 C.ar  327  PHE327     -0.0202
     98  CD1       96.5160   45.8610   23.6220 C.ar  327  PHE327     -0.0042
     99  CD2       94.6060   44.4410   23.5890 C.ar  327  PHE327     -0.0042
    100  CE1       96.7100   45.6410   22.2660 C.ar  327  PHE327     -0.0003
    101  CE2       94.7910   44.2160   22.2350 C.ar  327  PHE327     -0.0003
    102  CZ        95.8560   44.8240   21.5730 C.ar  327  PHE327     -0.0000
    103  N         96.6110   47.4640   27.7960 N.am  328  PHE328     -0.1976
    104  CA        97.1480   48.7950   28.0620 C.3   328  PHE328      0.1639
    105  C         98.4700   48.8880   28.8180 C.2   328  PHE328      0.2290
    106  O         99.2380   49.8230   28.6090 O.2   328  PHE328     -0.2864
    107  CB        96.0820   49.6390   28.7660 C.3   328  PHE328      0.0560
    108  CG        94.8080   49.7560   27.9800 C.ar  328  PHE328     -0.0200
    109  CD1       93.8910   48.7030   27.9500 C.ar  328  PHE328     -0.0042
    110  CD2       94.5500   50.8950   27.2150 C.ar  328  PHE328     -0.0042
    111  CE1       92.7320   48.7840   27.1590 C.ar  328  PHE328     -0.0003
    112  CE2       93.3920   50.9880   26.4190 C.ar  328  PHE328     -0.0003
    113  CZ        92.4810   49.9270   26.3920 C.ar  328  PHE328     -0.0000
    114  N        101.3860   47.9590   26.2670 N.3   331  TYR331     -0.1241
    115  CA       101.8120   49.0640   25.4310 C.3   331  TYR331      0.1605
    116  C        102.4990   50.2200   26.1220 C.2   331  TYR331      0.2264
    117  O        103.5630   50.6580   25.6620 O.2   331  TYR331     -0.2867
    118  CB       100.6520   49.5930   24.5870 C.3   331  TYR331      0.0534
    119  CG       100.3960   48.7980   23.2990 C.ar  331  TYR331     -0.0201
    120  CD1      100.2090   47.4030   23.3330 C.ar  331  TYR331     -0.0009
    121  CD2      100.3730   49.4240   22.0530 C.ar  331  TYR331     -0.0009
    122  CE1      100.0180   46.6650   22.1830 C.ar  331  TYR331      0.0417
    123  CE2      100.1790   48.6850   20.8830 C.ar  331  TYR331      0.0417
    124  CZ       100.0050   47.3020   20.9660 C.ar  331  TYR331      0.1957
    125  OH        99.8310   46.5530   19.8260 O.3   331  TYR331     -0.2866
    126  N         91.0560   42.6150   26.5760 N.3   437  HIS437     -0.1226
    127  CA        90.1020   43.5950   26.1210 C.3   437  HIS437      0.1752
    128  C         89.9420   43.3360   24.6140 C.2   437  HIS437      0.2596
    129  O         90.9330   43.3090   23.8710 O.2   437  HIS437     -0.2718
    130  CB        90.7040   44.9580   26.3830 C.3   437  HIS437      0.0759
    131  CG        89.8320   46.1050   26.0000 C.ar  437  HIS437      0.0818
    132  ND1       88.6740   46.4180   26.6780 N.ar  437  HIS437     -0.2268
    133  CD2       89.9910   47.0670   25.0590 C.ar  437  HIS437      0.1154
    134  CE1       88.1600   47.5280   26.1780 C.ar  437  HIS437      0.1986
    135  NE2       88.9420   47.9420   25.1960 N.ar  437  HIS437     -0.2212
    136  N         88.6950   43.1170   24.1790 N.am  438  GLY438     -0.1957
    137  CA        88.3950   42.8770   22.7770 C.3   438  GLY438      0.1869
    138  C         88.3130   41.4150   22.3160 C.2   438  GLY438      0.2309
    139  O         87.9010   41.1470   21.1780 O.2   438  GLY438     -0.2863
@<TRIPOS>BOND
     1    17    18    2
     2    17    16    1
     3     4     3    2
     4    15    16    1
     5     1     2    1
     6    16    19    1
     7     3     2    1
     8    12    11    2
     9     2     5    1
    10    11    10    1
    11    51    50    1
    12    51    52    2
    13    50    53    1
    14    50    49    1
    15    40    39    2
    16    53    54    1
    17    19    20    1
    18     5     6    1
    19    14    13    1
    20    39    49   am
    21    39    38    1
    22     9    10    1
    23    10    13    1
    24    25    22   ar
    25    25    27   ar
    26    20    22   ar
    27    20    21   ar
    28     6     8   ar
    29     6     7   ar
    30    22    24   ar
    31    27    28   ar
    32    21    23   ar
    33    38    37    1
    34    38    41    1
    35    43    45   ar
    36    43    42   ar
    37    45    47   ar
    38    24    23   ar
    39    24    26   ar
    40    28    26   ar
    41    41    42    1
    42    42    44   ar
    43    47    48    1
    44    47    46   ar
    45    32    31    2
    46    30    29    1
    47    30    31    1
    48   125   124    1
    49    44    46   ar
    50    31    33   am
    51   123   124   ar
    52   123   121   ar
    53   124   122   ar
    54   139   138    2
    55    55    56    1
    56    35    36    2
    57    35    34    1
    58    62    61   ar
    59    33    34    1
    60   102   101   ar
    61   102   100   ar
    62    58    57    2
    63    59    56    1
    64    59    60    1
    65   121   119   ar
    66   122   120   ar
    67   101    99   ar
    68   100    98   ar
    69   138   137    1
    70    56    57    1
    71    61    60    1
    72    61    63   ar
    73    57    64   am
    74   137   136    1
    75    68    65    1
    76    68    69    1
    77   119   120   ar
    78   119   118    1
    79    85    86    1
    80    85    82    1
    81    87    86   ar
    82    87    89   ar
    83    99    97   ar
    84    98    97   ar
    85    66    65    1
    86    66    67    2
    87    64    65    1
    88   129   128    2
    89    86    88   ar
    90    83    82    1
    91    83    84    2
    92    89    91   ar
    93    82    81    1
    94   136   128   am
    95    97    96    1
    96   118   115    1
    97   128   127    1
    98    88    90   ar
    99    91    90   ar
   100   133   135   ar
   101   133   131   ar
   102   135   134   ar
   103   115   116    1
   104   115   114    1
   105   117   116    2
   106    96    93    1
   107   131   130    1
   108   131   132   ar
   109   127   130    1
   110   127   126    1
   111   134   132   ar
   112    95    94    2
   113   113   112   ar
   114   113   111   ar
   115   112   110   ar
   116    93    94    1
   117    93    92    1
   118    94   103   am
   119   111   109   ar
   120   110   108   ar
   121   103   104    1
   122    78    80   ar
   123    78    76   ar
   124   109   108   ar
   125   108   107    1
   126   104   107    1
   127   104   105    1
   128    80    79   ar
   129    76    75   ar
   130    71    72    1
   131    71    70    1
   132    71    74    1
   133    72    73    2
   134   106   105    2
   135    79    77   ar
   136    75    77   ar
   137    75    74    1
