@<TRIPOS>MOLECULE
tmp/2v97A00.pdb
 137 136 0 0 0
SMALL
GASTEIGER

@<TRIPOS>ATOM
      1  N         95.4550   56.7370   13.6160 N.3    67  TYR67      -0.1241
      2  CA        96.7860   56.3830   14.0690 C.3    67  TYR67       0.1605
      3  C         96.9080   54.8550   13.9530 C.2    67  TYR67       0.2264
      4  O         96.2260   54.1170   14.6400 O.2    67  TYR67      -0.2867
      5  CB        96.9240   56.7690   15.5430 C.3    67  TYR67       0.0534
      6  CG        98.2390   56.3840   16.1600 C.ar   67  TYR67      -0.0201
      7  CD1       99.3420   57.2370   16.0840 C.ar   67  TYR67      -0.0009
      8  CD2       98.4020   55.1410   16.7770 C.ar   67  TYR67      -0.0009
      9  CE1      100.5690   56.8690   16.6060 C.ar   67  TYR67       0.0417
     10  CE2       99.6240   54.7610   17.2980 C.ar   67  TYR67       0.0417
     11  CZ       100.7020   55.6320   17.2130 C.ar   67  TYR67       0.1957
     12  OH       101.9120   55.2850   17.7740 O.3    67  TYR67      -0.2866
     13  N         98.7180   51.3340   14.5620 N.3    69  ASP69      -0.1239
     14  CA        99.6010   50.7640   15.5650 C.3    69  ASP69       0.1674
     15  C        100.7900   50.0980   14.8790 C.2    69  ASP69       0.2266
     16  O        100.6160   49.3690   13.9120 O.2    69  ASP69      -0.2867
     17  CB        98.8020   49.7570   16.3910 C.3    69  ASP69       0.1410
     18  CG        99.6570   48.9380   17.3250 C.2    69  ASP69       0.3668
     19  OD1      100.6500   49.4540   17.8720 O.co2  69  ASP69      -0.2456
     20  OD2       99.3070   47.7610   17.5330 O.co2  69  ASP69      -0.2456
     21  N        103.4630   49.0530   17.0450 N.3    71  GLN71      -0.1245
     22  CA       104.1730   48.4810   18.1530 C.3    71  GLN71       0.1566
     23  C        104.7380   47.1050   17.8030 C.2    71  GLN71       0.2260
     24  O        105.8740   46.8010   18.1370 O.2    71  GLN71      -0.2867
     25  CB       103.2290   48.3630   19.3450 C.3    71  GLN71       0.0367
     26  CG       103.6330   49.2320   20.4850 C.3    71  GLN71       0.0905
     27  CD       104.9710   48.8420   21.0060 C.2    71  GLN71       0.2608
     28  OE1      105.7260   49.6810   21.4650 O.2    71  GLN71      -0.2717
     29  NE2      105.2760   47.5530   20.9460 N.am   71  GLN71      -0.0878
     30  N         89.7500   57.0570   18.7800 N.3   118  TYR118     -0.1241
     31  CA        90.8730   57.5250   17.9540 C.3   118  TYR118      0.1605
     32  C         91.1280   56.5820   16.7830 C.2   118  TYR118      0.2264
     33  O         91.8510   56.9300   15.8730 O.2   118  TYR118     -0.2867
     34  CB        92.1590   57.6540   18.7840 C.3   118  TYR118      0.0534
     35  CG        92.9570   56.3670   18.9570 C.ar  118  TYR118     -0.0201
     36  CD1       93.9500   56.0070   18.0530 C.ar  118  TYR118     -0.0009
     37  CD2       92.6890   55.4990   20.0120 C.ar  118  TYR118     -0.0009
     38  CE1       94.6500   54.8170   18.1880 C.ar  118  TYR118      0.0417
     39  CE2       93.3740   54.3060   20.1650 C.ar  118  TYR118      0.0417
     40  CZ        94.3500   53.9680   19.2530 C.ar  118  TYR118      0.1957
     41  OH        95.0130   52.7590   19.4130 O.3   118  TYR118     -0.2866
     42  N         98.4540   62.7130   20.0430 N.3   276  TRP276     -0.1241
     43  CA        98.6360   62.4060   21.4580 C.3   276  TRP276      0.1605
     44  C         99.2820   63.4990   22.2770 C.2   276  TRP276      0.2264
     45  O         99.3100   63.3990   23.5020 O.2   276  TRP276     -0.2867
     46  CB        99.4880   61.1350   21.6430 C.3   276  TRP276      0.0550
     47  CG        98.9880   59.9270   20.8930 C.ar  276  TRP276      0.0003
     48  CD1       99.3670   59.5180   19.6490 C.ar  276  TRP276      0.0946
     49  CD2       98.0060   58.9920   21.3390 C.ar  276  TRP276      0.0152
     50  NE1       98.6850   58.3810   19.2870 N.ar  276  TRP276     -0.2442
     51  CE2       97.8420   58.0330   20.3100 C.ar  276  TRP276      0.0810
     52  CE3       97.2440   58.8650   22.5130 C.ar  276  TRP276      0.0012
     53  CZ2       96.9490   56.9580   20.4220 C.ar  276  TRP276      0.0191
     54  CZ3       96.3560   57.8010   22.6270 C.ar  276  TRP276      0.0001
     55  CH2       96.2190   56.8580   21.5830 C.ar  276  TRP276      0.0015
     56  N         97.1310   65.4030   25.2280 N.3   279  LEU279     -0.1245
     57  CA        96.6830   64.8330   26.4840 C.3   279  LEU279      0.1561
     58  C         97.3390   65.6130   27.6110 C.2   279  LEU279      0.2260
     59  O         98.5000   65.9850   27.5110 O.2   279  LEU279     -0.2867
     60  CB        97.0590   63.3570   26.5560 C.3   279  LEU279      0.0270
     61  CG        96.1540   62.4880   25.6940 C.3   279  LEU279      0.0019
     62  CD1       96.6260   61.0470   25.7820 C.3   279  LEU279      0.0001
     63  CD2       94.6970   62.5950   26.1550 C.3   279  LEU279      0.0001
     64  N        100.0040   59.0740   30.3250 N.3   283  SER283     -0.1202
     65  CA        99.1730   57.9770   30.7840 C.3   283  SER283      0.2020
     66  C         98.9050   56.8360   29.8280 C.2   283  SER283      0.2619
     67  O         99.5000   56.7310   28.7530 O.2   283  SER283     -0.2717
     68  CB        97.8230   58.5590   31.1610 C.3   283  SER283      0.2103
     69  OG        97.2320   59.1020   29.9930 O.3   283  SER283     -0.2182
     70  N         97.9860   55.9790   30.2530 N.am  284  ILE284     -0.1965
     71  CA        97.5270   54.8550   29.4550 C.3   284  ILE284      0.1727
     72  C         95.9850   54.8360   29.5060 C.2   284  ILE284      0.2616
     73  O         95.3810   55.3910   30.4080 O.2   284  ILE284     -0.2715
     74  CB        98.1300   53.5080   29.9520 C.3   284  ILE284      0.0290
     75  CG1       97.6000   53.1350   31.3250 C.3   284  ILE284      0.0022
     76  CG2       99.6250   53.6560   30.0630 C.3   284  ILE284      0.0023
     77  CD1       98.0940   51.8190   31.8160 C.3   284  ILE284      0.0001
     78  N         95.3450   54.2200   28.5260 N.am  285  PHE285     -0.1960
     79  CA        93.8820   54.1810   28.4840 C.3   285  PHE285      0.1771
     80  C         93.2310   55.5730   28.5110 C.2   285  PHE285      0.2619
     81  O         92.1780   55.7870   29.1380 O.2   285  PHE285     -0.2715
     82  CB        93.3150   53.3240   29.6150 C.3   285  PHE285      0.0574
     83  CG        92.1610   52.4690   29.1810 C.ar  285  PHE285     -0.0200
     84  CD1       91.1680   52.9890   28.3400 C.ar  285  PHE285     -0.0042
     85  CD2       92.0750   51.1390   29.5740 C.ar  285  PHE285     -0.0042
     86  CE1       90.1280   52.2120   27.8890 C.ar  285  PHE285     -0.0003
     87  CE2       91.0230   50.3370   29.1270 C.ar  285  PHE285     -0.0003
     88  CZ        90.0410   50.8760   28.2790 C.ar  285  PHE285     -0.0000
     89  N         93.8770   56.5000   27.8010 N.am  286  ARG286     -0.1963
     90  CA        93.4410   57.8800   27.6430 C.3   286  ARG286      0.1729
     91  C         93.6150   58.2280   26.1610 C.2   286  ARG286      0.2616
     92  O         94.6360   57.9080   25.5600 O.2   286  ARG286     -0.2715
     93  CB        94.2750   58.8160   28.5110 C.3   286  ARG286      0.0348
     94  CG        93.9380   58.7430   29.9860 C.3   286  ARG286      0.0492
     95  CD        92.4520   58.9830   30.2050 C.3   286  ARG286      0.2205
     96  NE        92.0780   59.0280   31.6240 N.pl3 286  ARG286     -0.0865
     97  CZ        91.8070   57.9680   32.3860 C.cat 286  ARG286      0.5346
     98  NH1       91.8580   56.7270   31.8880 N.pl3 286  ARG286      0.1354
     99  NH2       91.4800   58.1590   33.6610 N.pl3 286  ARG286      0.1354
    100  N         92.6080   58.8800   25.5790 N.am  287  PHE287     -0.1974
    101  CA        92.6220   59.2460   24.1640 C.3   287  PHE287      0.1639
    102  C         92.2880   60.7190   23.9830 C.2   287  PHE287      0.2290
    103  O         91.4330   61.2620   24.6640 O.2   287  PHE287     -0.2864
    104  CB        91.6360   58.3590   23.4630 C.3   287  PHE287      0.0560
    105  CG        91.6850   56.9270   23.9520 C.ar  287  PHE287     -0.0200
    106  CD1       92.7170   56.0780   23.5600 C.ar  287  PHE287     -0.0042
    107  CD2       90.7270   56.4520   24.8540 C.ar  287  PHE287     -0.0042
    108  CE1       92.7990   54.7870   24.0580 C.ar  287  PHE287     -0.0003
    109  CE2       90.8050   55.1600   25.3570 C.ar  287  PHE287     -0.0003
    110  CZ        91.8430   54.3250   24.9600 C.ar  287  PHE287     -0.0000
    111  N         96.6110   47.4640   27.7960 N.3   328  PHE328     -0.1241
    112  CA        97.1480   48.7950   28.0620 C.3   328  PHE328      0.1605
    113  C         98.4700   48.8880   28.8180 C.2   328  PHE328      0.2264
    114  O         99.2380   49.8230   28.6090 O.2   328  PHE328     -0.2867
    115  CB        96.0820   49.6390   28.7660 C.3   328  PHE328      0.0534
    116  CG        94.8080   49.7560   27.9800 C.ar  328  PHE328     -0.0203
    117  CD1       93.8910   48.7030   27.9500 C.ar  328  PHE328     -0.0042
    118  CD2       94.5500   50.8950   27.2150 C.ar  328  PHE328     -0.0042
    119  CE1       92.7320   48.7840   27.1590 C.ar  328  PHE328     -0.0003
    120  CE2       93.3920   50.9880   26.4190 C.ar  328  PHE328     -0.0003
    121  CZ        92.4810   49.9270   26.3920 C.ar  328  PHE328     -0.0000
    122  N        101.3860   47.9590   26.2670 N.3   331  TYR331     -0.1227
    123  CA       101.8120   49.0640   25.4310 C.3   331  TYR331      0.1736
    124  C        102.4990   50.2200   26.1220 C.2   331  TYR331      0.2596
    125  O        103.5630   50.6580   25.6620 O.2   331  TYR331     -0.2718
    126  CB       100.6520   49.5930   24.5870 C.3   331  TYR331      0.0548
    127  CG       100.3960   48.7980   23.2990 C.ar  331  TYR331     -0.0200
    128  CD1      100.2090   47.4030   23.3330 C.ar  331  TYR331     -0.0009
    129  CD2      100.3730   49.4240   22.0530 C.ar  331  TYR331     -0.0009
    130  CE1      100.0180   46.6650   22.1830 C.ar  331  TYR331      0.0417
    131  CE2      100.1790   48.6850   20.8830 C.ar  331  TYR331      0.0417
    132  CZ       100.0050   47.3020   20.9660 C.ar  331  TYR331      0.1957
    133  OH        99.8310   46.5530   19.8260 O.3   331  TYR331     -0.2866
    134  N        101.9520   50.6980   27.2390 N.am  332  GLY332     -0.1957
    135  CA       102.5700   51.8610   27.8660 C.3   332  GLY332      0.1869
    136  C        103.2390   51.8180   29.2220 C.2   332  GLY332      0.2309
    137  O        103.7740   52.8410   29.6530 O.2   332  GLY332     -0.2863
@<TRIPOS>BOND
     1     1     2    1
     2    16    15    2
     3     3     2    1
     4     3     4    2
     5     2     5    1
     6    13    14    1
     7    15    14    1
     8     5     6    1
     9    14    17    1
    10    33    32    2
    11     7     6   ar
    12     7     9   ar
    13     6     8   ar
    14    17    18    1
    15     9    11   ar
    16     8    10   ar
    17    32    31    1
    18    21    22    1
    19    11    10   ar
    20    11    12    1
    21    18    20   ar
    22    18    19   ar
    23    23    24    2
    24    23    22    1
    25    31    30    1
    26    31    34    1
    27    36    38   ar
    28    36    35   ar
    29    22    25    1
    30    38    40   ar
    31    34    35    1
    32    35    37   ar
    33    40    41    1
    34    40    39   ar
    35    50    48   ar
    36    50    51   ar
    37    25    26    1
    38    48    47   ar
    39   133   132    1
    40    37    39   ar
    41    42    43    1
    42    51    53   ar
    43    51    49   ar
    44    53    55   ar
    45    26    27    1
    46   131   132   ar
    47   131   129   ar
    48    47    49   ar
    49    47    46    1
    50    29    27   am
    51   132   130   ar
    52    27    28    2
    53    49    52   ar
    54    43    46    1
    55    43    44    1
    56    55    54   ar
    57   129   127   ar
    58   130   128   ar
    59    44    45    2
    60    52    54   ar
    61   127   128   ar
    62   127   126    1
    63   104   105    1
    64   104   101    1
    65   106   105   ar
    66   106   108   ar
    67   105   107   ar
    68   102   101    1
    69   102   103    2
    70   108   110   ar
    71   101   100    1
    72   126   123    1
    73   107   109   ar
    74   110   109   ar
    75    56    57    1
    76   123   124    1
    77   123   122    1
    78    92    91    2
    79   100    91   am
    80   125   124    2
    81    61    62    1
    82    61    63    1
    83    61    60    1
    84   124   134   am
    85    91    90    1
    86   121   120   ar
    87   121   119   ar
    88   120   118   ar
    89    57    60    1
    90    57    58    1
    91   119   117   ar
    92   118   116   ar
    93   134   135    1
    94    59    58    2
    95    90    89    1
    96    90    93    1
    97   111   112    1
    98    89    80   am
    99   135   136    1
   100    86    88   ar
   101    86    84   ar
   102   117   116   ar
   103   116   115    1
   104   112   115    1
   105   112   113    1
   106    88    87   ar
   107    84    83   ar
   108    79    80    1
   109    79    78    1
   110    79    82    1
   111    93    94    1
   112    80    81    2
   113    78    72   am
   114   114   113    2
   115    67    66    2
   116    87    85   ar
   117    83    85   ar
   118    83    82    1
   119   136   137    2
   120    71    72    1
   121    71    74    1
   122    71    70    1
   123    72    73    2
   124    66    70   am
   125    66    65    1
   126    74    76    1
   127    74    75    1
   128    94    95    1
   129    69    68    1
   130    95    96    1
   131    64    65    1
   132    65    68    1
   133    75    77    1
   134    96    97    2
   135    98    97    1
   136    97    99    1
