@<TRIPOS>MOLECULE
tmp/2v9cA01.pdb
 83 79 0 0 0
SMALL
GASTEIGER

@<TRIPOS>ATOM
      1  N         15.4450   22.3700   16.1010 N.3    11  ARG11      -0.1245
      2  CA        14.7950   22.9160   17.2600 C.3    11  ARG11       0.1563
      3  C         15.1860   24.3720   17.4620 C.2    11  ARG11       0.2260
      4  O         16.2450   24.7850   17.0820 O.2    11  ARG11      -0.2867
      5  CB        15.1330   22.0920   18.4850 C.3    11  ARG11       0.0307
      6  CG        14.7370   20.6450   18.3810 C.3    11  ARG11       0.0489
      7  CD        14.5080   20.0480   19.7320 C.3    11  ARG11       0.2205
      8  NE        15.7450   19.8340   20.4490 N.pl3  11  ARG11      -0.0865
      9  CZ        15.8220   19.3420   21.6670 C.cat  11  ARG11       0.5346
     10  NH1       16.9930   19.1730   22.2340 N.pl3  11  ARG11       0.1354
     11  NH2       14.7320   19.0250   22.3190 N.pl3  11  ARG11       0.1354
     12  N         23.9660   15.6330   17.2130 N.3    96  MET96      -0.1245
     13  CA        24.3220   14.3870   16.5580 C.3    96  MET96       0.1570
     14  C         23.0400   13.6330   16.2370 C.2    96  MET96       0.2261
     15  O         22.3190   13.2190   17.1380 O.2    96  MET96      -0.2867
     16  CB        25.2110   13.5350   17.4580 C.3    96  MET96       0.0387
     17  CG        25.2850   12.0850   17.0270 C.3    96  MET96       0.0595
     18  SD        26.4940   11.1330   17.9500 S.3    96  MET96      -0.1393
     19  CE        28.0060   11.6040   17.1230 C.3    96  MET96       0.0692
     20  N         21.6600   10.3360   14.5180 N.3    98  ASN98      -0.1225
     21  CA        22.0200    9.0400   13.9610 C.3    98  ASN98       0.1785
     22  C         23.4760    8.9030   13.5430 C.2    98  ASN98       0.2597
     23  O         23.8050    8.4900   12.4410 O.2    98  ASN98      -0.2718
     24  CB        21.0480    8.6220   12.8670 C.3    98  ASN98       0.1169
     25  CG        19.6370    8.4940   13.3830 C.2    98  ASN98       0.2627
     26  OD1       19.3830    7.7590   14.3200 O.2    98  ASN98      -0.2716
     27  ND2       18.7240    9.2310   12.7940 N.am   98  ASN98      -0.0877
     28  N         24.3360    9.2550   14.4810 N.am   99  PHE99      -0.1976
     29  CA        25.7710    9.1480   14.3580 C.3    99  PHE99       0.1639
     30  C         26.4220   10.0970   13.3460 C.2    99  PHE99       0.2290
     31  O         27.5600    9.9300   12.9840 O.2    99  PHE99      -0.2864
     32  CB        26.2000    7.6870   14.2010 C.3    99  PHE99       0.0560
     33  CG        25.5210    6.7490   15.1720 C.ar   99  PHE99      -0.0200
     34  CD1       25.9240    6.6730   16.4850 C.ar   99  PHE99      -0.0042
     35  CD2       24.4710    5.9560   14.7750 C.ar   99  PHE99      -0.0042
     36  CE1       25.2930    5.8410   17.3630 C.ar   99  PHE99      -0.0003
     37  CE2       23.8470    5.1340   15.6560 C.ar   99  PHE99      -0.0003
     38  CZ        24.2570    5.0790   16.9460 C.ar   99  PHE99      -0.0000
     39  N         24.8230   16.0090   22.0950 N.3   143  ARG143     -0.1231
     40  CA        24.5420   14.5990   21.9410 C.3   143  ARG143      0.1694
     41  C         23.6490   14.0850   23.0580 C.2   143  ARG143      0.2593
     42  O         23.7370   14.5410   24.1670 O.2   143  ARG143     -0.2718
     43  CB        25.8250   13.8010   21.9390 C.3   143  ARG143      0.0321
     44  CG        26.7760   14.1850   20.8810 C.3   143  ARG143      0.0489
     45  CD        28.0040   13.3740   20.9450 C.3   143  ARG143      0.2205
     46  NE        29.0950   14.0680   20.2980 N.pl3 143  ARG143     -0.0865
     47  CZ        30.2680   14.2870   20.8610 C.cat 143  ARG143      0.5346
     48  NH1       30.5030   13.8550   22.0720 N.pl3 143  ARG143      0.1354
     49  NH2       31.1970   14.9320   20.2100 N.pl3 143  ARG143      0.1354
     50  N         22.8000   13.1280   22.7270 N.am  144  GLY144     -0.1942
     51  CA        21.8600   12.5500   23.6490 C.3   144  GLY144      0.2014
     52  C         22.5040   11.4950   24.4970 C.2   144  GLY144      0.2639
     53  O         22.1750   11.3700   25.6470 O.2   144  GLY144     -0.2714
     54  N         23.3970   10.7340   23.8930 N.am  145  GLY145     -0.1954
     55  CA        24.1460    9.7060   24.5750 C.3   145  GLY145      0.1869
     56  C         25.5130   10.1830   25.0240 C.2   145  GLY145      0.2309
     57  O         25.7740   11.3600   25.1140 O.2   145  GLY145     -0.2863
     58  N         31.0440    9.6920   22.8820 N.3   148  PHE148     -0.1241
     59  CA        31.3750    9.9040   21.4730 C.3   148  PHE148      0.1605
     60  C         32.6190   10.7380   21.2550 C.2   148  PHE148      0.2264
     61  O         33.0720   10.8760   20.1490 O.2   148  PHE148     -0.2867
     62  CB        30.2030   10.4790   20.6850 C.3   148  PHE148      0.0534
     63  CG        29.0620    9.5400   20.5480 C.ar  148  PHE148     -0.0203
     64  CD1       29.1170    8.4960   19.6690 C.ar  148  PHE148     -0.0042
     65  CD2       27.9420    9.6890   21.3120 C.ar  148  PHE148     -0.0042
     66  CE1       28.0830    7.6400   19.5600 C.ar  148  PHE148     -0.0003
     67  CE2       26.9150    8.8280   21.1990 C.ar  148  PHE148     -0.0003
     68  CZ        26.9830    7.8050   20.3240 C.ar  148  PHE148     -0.0000
     69  N         25.2880   13.2740   27.0550 N.3   183  GLY183     -0.1225
     70  CA        24.2840   12.8020   27.9800 C.3   183  GLY183      0.1811
     71  C         22.9990   13.5940   27.9490 C.2   183  GLY183      0.2280
     72  O         22.1770   13.4910   28.8560 O.2   183  GLY183     -0.2866
     73  N         23.5000   16.4310   32.6080 N.3   185  PHE185     -0.1241
     74  CA        23.6490   16.8470   31.2360 C.3   185  PHE185      0.1605
     75  C         23.8080   18.3310   31.4110 C.2   185  PHE185      0.2264
     76  O         24.4430   19.0080   30.6150 O.2   185  PHE185     -0.2867
     77  CB        22.3890   16.5570   30.4470 C.3   185  PHE185      0.0534
     78  CG        22.4050   17.1200   29.0740 C.ar  185  PHE185     -0.0203
     79  CD1       23.2880   16.6500   28.1350 C.ar  185  PHE185     -0.0042
     80  CD2       21.5410   18.1180   28.7210 C.ar  185  PHE185     -0.0042
     81  CE1       23.2970   17.1660   26.8830 C.ar  185  PHE185     -0.0003
     82  CE2       21.5560   18.6260   27.4760 C.ar  185  PHE185     -0.0003
     83  CZ        22.4350   18.1490   26.5560 C.ar  185  PHE185     -0.0000
@<TRIPOS>BOND
     1    23    22    2
     2    27    25   am
     3    24    25    1
     4    24    21    1
     5    31    30    2
     6    30    29    1
     7    25    26    2
     8    22    21    1
     9    22    28   am
    10    21    20    1
    11    32    29    1
    12    32    33    1
    13    29    28    1
    14    35    33   ar
    15    35    37   ar
    16    33    34   ar
    17    37    38   ar
    18     1     2    1
    19    14    13    1
    20    14    15    2
    21    34    36   ar
    22    13    12    1
    23    13    16    1
    24    38    36   ar
    25    17    16    1
    26    17    18    1
    27     4     3    2
    28    19    18    1
    29     2     3    1
    30     2     5    1
    31     6     5    1
    32     6     7    1
    33    66    64   ar
    34    66    68   ar
    35    64    63   ar
    36     7     8    1
    37    61    60    2
    38    49    47    1
    39    46    47    2
    40    46    45    1
    41    68    67   ar
    42     8     9    2
    43    63    62    1
    44    63    65   ar
    45    62    59    1
    46    47    48    1
    47    44    45    1
    48    44    43    1
    49    67    65   ar
    50    60    59    1
    51    59    58    1
    52     9    10    1
    53     9    11    1
    54    43    40    1
    55    40    39    1
    56    40    41    1
    57    50    41   am
    58    50    51    1
    59    41    42    2
    60    51    52    1
    61    54    52   am
    62    54    55    1
    63    52    53    2
    64    55    56    1
    65    56    57    2
    66    83    81   ar
    67    83    82   ar
    68    81    79   ar
    69    69    70    1
    70    82    80   ar
    71    71    70    1
    72    71    72    2
    73    79    78   ar
    74    80    78   ar
    75    78    77    1
    76    77    74    1
    77    76    75    2
    78    74    75    1
    79    74    73    1
