@<TRIPOS>MOLECULE
tmp/2v9gA00.pdb
 93 90 0 0 0
SMALL
GASTEIGER

@<TRIPOS>ATOM
      1  N         96.4560   19.2690  223.3190 N.3    28  ASN28      -0.1225
      2  CA        97.4210   18.3880  223.9500 C.3    28  ASN28       0.1785
      3  C         97.9930   19.0330  225.2190 C.2    28  ASN28       0.2598
      4  O         98.9020   18.4890  225.8530 O.2    28  ASN28      -0.2718
      5  CB        98.5560   18.1290  222.9730 C.3    28  ASN28       0.1169
      6  CG        99.4300   19.3450  222.7910 C.2    28  ASN28       0.2627
      7  OD1       98.9350   20.4430  222.4830 O.2    28  ASN28      -0.2716
      8  ND2      100.7370   19.1720  222.9990 N.am   28  ASN28      -0.0877
      9  N         97.4740   20.2030  225.5740 N.am   29  GLY29      -0.1942
     10  CA        97.9520   20.8840  226.7610 C.3    29  GLY29       0.2014
     11  C         97.9120   20.0100  228.0040 C.2    29  GLY29       0.2639
     12  O         97.0080   19.1780  228.1730 O.2    29  GLY29      -0.2714
     13  N         98.9080   20.1970  228.8690 N.am   30  GLY30      -0.1939
     14  CA        99.0050   19.4470  230.1090 C.3    30  GLY30       0.2014
     15  C         99.6140   18.0660  229.9460 C.2    30  GLY30       0.2638
     16  O         99.6770   17.5190  228.8400 O.2    30  GLY30      -0.2714
     17  N        100.0860   17.5090  231.0570 N.am   31  ASN31      -0.1972
     18  CA       100.6680   16.1740  231.0720 C.3    31  ASN31       0.1688
     19  C        100.7320   15.7210  232.5230 C.2    31  ASN31       0.2292
     20  O        100.7220   16.5470  233.4290 O.2    31  ASN31      -0.2864
     21  CB       102.0530   16.1750  230.4150 C.3    31  ASN31       0.1181
     22  CG       102.8710   17.3800  230.7910 C.2    31  ASN31       0.2629
     23  OD1      103.1630   17.5990  231.9600 O.2    31  ASN31      -0.2716
     24  ND2      103.2440   18.1700  229.8010 N.am   31  ASN31      -0.0877
     25  N        102.8240   12.2120  224.4150 N.3    74  SER74      -0.1202
     26  CA       103.0980   13.5020  223.7950 C.3    74  SER74       0.2020
     27  C        102.0990   13.7550  222.6560 C.2    74  SER74       0.2619
     28  O        101.8780   12.8940  221.7930 O.2    74  SER74      -0.2717
     29  CB       104.5230   13.5300  223.2500 C.3    74  SER74       0.2103
     30  OG       104.8170   14.7880  222.6670 O.3    74  SER74      -0.2182
     31  N        101.4830   14.9280  222.6580 N.am   75  GLY75      -0.1956
     32  CA       100.5250   15.2360  221.6130 C.3    75  GLY75       0.1869
     33  C         99.1630   14.6380  221.8970 C.2    75  GLY75       0.2309
     34  O         98.2310   14.7640  221.0960 O.2    75  GLY75      -0.2863
     35  N        105.2720   12.2960  227.2120 N.3   114  THR114     -0.1203
     36  CA       105.1330   13.7580  227.0730 C.3   114  THR114      0.1994
     37  C        106.4750   14.4400  226.8870 C.2   114  THR114      0.2619
     38  O        107.5020   13.9830  227.3940 O.2   114  THR114     -0.2717
     39  CB       104.5000   14.4270  228.3120 C.3   114  THR114      0.1784
     40  OG1      104.5560   15.8550  228.1610 O.3   114  THR114     -0.2211
     41  CG2      105.2600   14.0360  229.5680 C.3   114  THR114      0.0376
     42  N        106.4450   15.5620  226.1770 N.am  115  SER115     -0.1937
     43  CA       107.6410   16.3450  225.9130 C.3   115  SER115      0.2055
     44  C        108.1920   16.9980  227.1940 C.2   115  SER115      0.2642
     45  O        109.3520   17.4200  227.2280 O.2   115  SER115     -0.2714
     46  CB       107.3210   17.4020  224.8580 C.3   115  SER115      0.2130
     47  OG       106.0630   18.0020  225.1240 O.3   115  SER115     -0.2179
     48  N        107.3730   17.0830  228.2450 N.am  116  GLU116     -0.1976
     49  CA       107.8480   17.6740  229.4910 C.3   116  GLU116      0.1602
     50  C        108.3750   16.5830  230.4100 C.2   116  GLU116      0.2287
     51  O        108.4810   16.7810  231.6180 O.2   116  GLU116     -0.2864
     52  CB       106.7390   18.4550  230.2100 C.3   116  GLU116      0.0415
     53  CG       106.1060   19.5970  229.4000 C.3   116  GLU116      0.1163
     54  CD       107.0500   20.7560  229.0690 C.2   116  GLU116      0.3649
     55  OE1      106.6030   21.6820  228.3590 O.co2 116  GLU116     -0.2457
     56  OE2      108.2190   20.7580  229.5030 O.co2 116  GLU116     -0.2457
     57  N        101.0830   18.6800  235.3690 N.3   140  HIS140     -0.1241
     58  CA       101.1390   19.9460  234.6700 C.3   140  HIS140      0.1621
     59  C         99.8420   20.1570  233.8960 C.2   140  HIS140      0.2264
     60  O         99.3700   19.2710  233.1770 O.2   140  HIS140     -0.2867
     61  CB       102.3300   19.9880  233.7060 C.3   140  HIS140      0.0745
     62  CG       102.2580   21.1110  232.7210 C.ar  140  HIS140      0.0817
     63  ND1      102.1470   22.4290  233.1040 N.ar  140  HIS140     -0.2268
     64  CD2      102.2590   21.1120  231.3680 C.ar  140  HIS140      0.1154
     65  CE1      102.0810   23.1960  232.0300 C.ar  140  HIS140      0.1986
     66  NE2      102.1460   22.4220  230.9630 N.ar  140  HIS140     -0.2212
     67  N         97.1570   23.5900  232.2610 N.3   142  HIS142     -0.1241
     68  CA        96.9740   24.9930  231.9850 C.3   142  HIS142      0.1621
     69  C         95.7820   25.5330  232.7400 C.2   142  HIS142      0.2264
     70  O         94.7250   25.7700  232.1660 O.2   142  HIS142     -0.2867
     71  CB        96.8110   25.1710  230.4810 C.3   142  HIS142      0.0745
     72  CG        97.9570   24.6120  229.6870 C.ar  142  HIS142      0.0817
     73  ND1       97.8760   24.3520  228.3340 N.ar  142  HIS142     -0.2268
     74  CD2       99.2300   24.3180  230.0480 C.ar  142  HIS142      0.1154
     75  CE1       99.0500   23.9300  227.8970 C.ar  142  HIS142      0.1986
     76  NE2       99.8890   23.9020  228.9160 N.ar  142  HIS142     -0.2212
     77  N        109.5540   26.1920  226.4920 N.3   187  PRO187     -0.2116
     78  CA       109.1410   24.8810  227.0080 C.3   187  PRO187      0.1372
     79  C        109.7690   23.6090  226.4620 C.2   187  PRO187      0.2244
     80  O        110.4690   23.6180  225.4530 O.2   187  PRO187     -0.2868
     81  CB       107.6290   24.9000  226.7950 C.3   187  PRO187      0.0268
     82  CG       107.4810   25.7000  225.5520 C.3   187  PRO187      0.0207
     83  CD       108.4410   26.8420  225.7730 C.3   187  PRO187      0.0892
     84  N        101.7250   30.3090  230.7520 N.3   211  HIS211     -0.1241
     85  CA       101.7100   28.9230  230.3300 C.3   211  HIS211      0.1621
     86  C        100.8540   28.0500  231.2360 C.2   211  HIS211      0.2264
     87  O         99.7800   27.6050  230.8420 O.2   211  HIS211     -0.2867
     88  CB       103.1440   28.3850  230.2530 C.3   211  HIS211      0.0745
     89  CG       103.2400   26.9990  229.7000 C.ar  211  HIS211      0.0817
     90  ND1      104.3960   26.5020  229.1430 N.ar  211  HIS211     -0.2268
     91  CD2      102.3300   25.9970  229.6360 C.ar  211  HIS211      0.1154
     92  CE1      104.1950   25.2540  228.7600 C.ar  211  HIS211      0.1986
     93  NE2      102.9490   24.9250  229.0490 N.ar  211  HIS211     -0.2212
@<TRIPOS>BOND
     1    34    33    2
     2    32    33    1
     3    32    31    1
     4    28    27    2
     5     7     6    2
     6    27    31   am
     7    27    26    1
     8    30    29    1
     9     6     5    1
    10     6     8   am
    11     5     2    1
    12    29    26    1
    13     1     2    1
    14    26    25    1
    15     2     3    1
    16    46    47    1
    17    46    43    1
    18     3     9   am
    19     3     4    2
    20    80    79    2
    21    82    83    1
    22    82    81    1
    23     9    10    1
    24    83    77    1
    25    43    42    1
    26    43    44    1
    27    42    37   am
    28    79    78    1
    29    77    78    1
    30    10    11    1
    31    81    78    1
    32    37    36    1
    33    37    38    2
    34    36    35    1
    35    36    39    1
    36    44    45    2
    37    44    48   am
    38    75    73   ar
    39    75    76   ar
    40    11    12    2
    41    11    13   am
    42    40    39    1
    43    48    49    1
    44    39    41    1
    45    73    72   ar
    46    55    54   ar
    47    92    93   ar
    48    92    90   ar
    49    16    15    2
    50    13    14    1
    51    76    74   ar
    52    93    91   ar
    53    54    53    1
    54    54    56   ar
    55    90    89   ar
    56    53    52    1
    57    49    52    1
    58    49    50    1
    59    91    89   ar
    60    72    74   ar
    61    72    71    1
    62    89    88    1
    63    24    22   am
    64    15    14    1
    65    15    17   am
    66    88    85    1
    67    85    84    1
    68    85    86    1
    69    50    51    2
    70    21    22    1
    71    21    18    1
    72    71    68    1
    73    22    23    2
    74    87    86    2
    75    66    64   ar
    76    66    65   ar
    77    17    18    1
    78    18    19    1
    79    64    62   ar
    80    68    67    1
    81    68    69    1
    82    65    63   ar
    83    70    69    2
    84    19    20    2
    85    62    63   ar
    86    62    61    1
    87    60    59    2
    88    61    58    1
    89    59    58    1
    90    58    57    1
