@<TRIPOS>MOLECULE
tmp/2v9jC01.pdb
 188 184 0 0 0
SMALL
GASTEIGER

@<TRIPOS>ATOM
      1  N         23.3210    0.0260   26.7180 N.3    47  ARG47      -0.1245
      2  CA        24.2240    1.0810   26.3140 C.3    47  ARG47       0.1563
      3  C         24.9370    1.7340   27.4690 C.2    47  ARG47       0.2260
      4  O         26.0050    2.2980   27.2950 O.2    47  ARG47      -0.2867
      5  CB        23.4500    2.1610   25.5560 C.3    47  ARG47       0.0307
      6  CG        23.6220    2.1370   24.0620 C.3    47  ARG47       0.0489
      7  CD        23.0720    0.8550   23.4690 C.3    47  ARG47       0.2205
      8  NE        22.9620    0.9560   22.0190 N.pl3  47  ARG47      -0.0865
      9  CZ        21.9560    0.4450   21.3180 C.cat  47  ARG47       0.5346
     10  NH1       20.9640   -0.1990   21.9390 N.pl3  47  ARG47       0.1354
     11  NH2       21.9320    0.5970   19.9950 N.pl3  47  ARG47       0.1354
     12  N         28.2810    7.5320   39.3180 N.3    61  GLY61      -0.1210
     13  CA        28.3510    7.8460   37.9030 C.3    61  GLY61       0.1956
     14  C         27.8060    6.7760   36.9790 C.2    61  GLY61       0.2611
     15  O         27.1070    5.8530   37.4080 O.2    61  GLY61      -0.2717
     16  N         28.1520    6.9090   35.7040 N.am   62  MET62      -0.1979
     17  CA        27.6520    6.0660   34.6280 C.3    62  MET62       0.1605
     18  C         28.8280    5.4310   33.9140 C.2    62  MET62       0.2287
     19  O         29.9350    5.9590   33.9610 O.2    62  MET62      -0.2864
     20  CB        26.8780    6.9280   33.6170 C.3    62  MET62       0.0413
     21  CG        25.5330    7.4340   34.1070 C.3    62  MET62       0.0598
     22  SD        24.2340    6.1730   34.0290 S.3    62  MET62      -0.1393
     23  CE        23.7230    6.1850   35.7330 C.3    62  MET62       0.0692
     24  N         29.3590    4.4030   29.9880 N.3    64  THR64      -0.1203
     25  CA        28.7780    4.4220   28.6450 C.3    64  THR64       0.1994
     26  C         29.7940    3.9750   27.5910 C.2    64  THR64       0.2618
     27  O         30.9610    3.7210   27.9110 O.2    64  THR64      -0.2717
     28  CB        28.2580    5.8210   28.2740 C.3    64  THR64       0.1784
     29  OG1       29.3620    6.7270   28.1200 O.3    64  THR64      -0.2211
     30  CG2       27.3190    6.3510   29.3280 C.3    64  THR64       0.0376
     31  N         29.3470    3.8710   26.3380 N.am   65  ILE65      -0.1965
     32  CA        30.2320    3.5230   25.2390 C.3    65  ILE65       0.1727
     33  C         31.3310    4.5750   25.0760 C.2    65  ILE65       0.2617
     34  O         32.4460    4.2420   24.6700 O.2    65  ILE65      -0.2715
     35  CB        29.4700    3.3740   23.8990 C.3    65  ILE65       0.0290
     36  CG1       28.1960    2.5420   24.0770 C.3    65  ILE65       0.0022
     37  CG2       30.3920    2.8350   22.7820 C.3    65  ILE65       0.0023
     38  CD1       28.4150    1.1810   24.6390 C.3    65  ILE65       0.0001
     39  N         31.0190    5.8320   25.3890 N.am   66  THR66      -0.1937
     40  CA        32.0170    6.9170   25.3120 C.3    66  THR66       0.2028
     41  C         33.2260    6.6030   26.1970 C.2    66  THR66       0.2642
     42  O         34.3680    6.7730   25.7820 O.2    66  THR66      -0.2714
     43  CB        31.4230    8.3190   25.6560 C.3    66  THR66       0.1808
     44  OG1       30.2550    8.5500   24.8680 O.3    66  THR66      -0.2208
     45  CG2       32.4120    9.4230   25.3470 C.3    66  THR66       0.0379
     46  N         32.9720    6.1140   27.3990 N.am   67  ASP67      -0.1971
     47  CA        34.0580    5.7180   28.2760 C.3    67  ASP67       0.1709
     48  C         34.8360    4.5730   27.6480 C.2    67  ASP67       0.2293
     49  O         36.0690    4.5620   27.6530 O.2    67  ASP67      -0.2864
     50  CB        33.5110    5.3560   29.6530 C.3    67  ASP67       0.1436
     51  CG        32.6130    6.4420   30.2040 C.2    67  ASP67       0.3671
     52  OD1       31.3970    6.2100   30.3620 O.co2  67  ASP67      -0.2456
     53  OD2       33.1200    7.5570   30.4280 O.co2  67  ASP67      -0.2456
     54  N         36.9340    6.0730   24.9080 N.3    70  ASN70      -0.1240
     55  CA        38.0670    6.7010   25.5910 C.3    70  ASN70       0.1653
     56  C         39.1300    5.7100   26.0630 C.2    70  ASN70       0.2266
     57  O         40.3200    5.9590   25.9040 O.2    70  ASN70      -0.2867
     58  CB        37.5800    7.5730   26.7570 C.3    70  ASN70       0.1155
     59  CG        36.9280    8.8660   26.2810 C.2    70  ASN70       0.2627
     60  OD1       36.8800    9.1370   25.0910 O.2    70  ASN70      -0.2716
     61  ND2       36.4290    9.6650   27.2090 N.am   70  ASN70      -0.0877
     62  N         33.0890   15.6320   38.2510 N.3   104  LYS104     -0.1231
     63  CA        31.8050   15.5510   37.5570 C.3   104  LYS104      0.1678
     64  C         30.9220   14.5650   38.3080 C.2   104  LYS104      0.2434
     65  O         31.0650   13.3530   38.1330 O.2   104  LYS104     -0.2733
     66  CB        31.9670   15.1050   36.0950 C.3   104  LYS104      0.0284
     67  CG        32.5940   16.1370   35.1580 C.3   104  LYS104      0.0035
     68  CD        32.3810   15.7420   33.6960 C.3   104  LYS104      0.0206
     69  CE        33.1940   16.6230   32.7470 C.3   104  LYS104      0.1093
     70  NZ        32.7630   18.0450   32.8070 N.3   104  LYS104     -0.1314
     71  N         30.0070   15.0790   39.1540 N.am  105  PRO105     -0.2718
     72  CA        29.1150   14.2110   39.9250 C.3   105  PRO105      0.1535
     73  C         28.0770   13.5340   39.0260 C.2   105  PRO105      0.2598
     74  O         27.8930   13.9430   37.8770 O.2   105  PRO105     -0.2715
     75  CB        28.4370   15.1870   40.8910 C.3   105  PRO105      0.0310
     76  CG        28.4510   16.4950   40.1780 C.3   105  PRO105      0.0237
     77  CD        29.7480   16.5100   39.4190 C.3   105  PRO105      0.0939
     78  N         27.4150   12.5020   39.5370 N.am  106  LEU106     -0.1964
     79  CA        26.3430   11.8620   38.7880 C.3   106  LEU106      0.1728
     80  C         25.1410   12.7940   38.7030 C.2   106  LEU106      0.2616
     81  O         24.6790   13.3060   39.7200 O.2   106  LEU106     -0.2715
     82  CB        25.9360   10.5300   39.4300 C.3   106  LEU106      0.0311
     83  CG        24.6690    9.8710   38.8790 C.3   106  LEU106      0.0022
     84  CD1       24.8960    9.3000   37.4910 C.3   106  LEU106      0.0001
     85  CD2       24.2120    8.7830   39.8000 C.3   106  LEU106      0.0001
     86  N         24.6500   13.0320   37.4920 N.am  107  VAL107     -0.1977
     87  CA        23.3870   13.7410   37.3360 C.3   107  VAL107      0.1596
     88  C         22.2560   12.7320   37.1510 C.2   107  VAL107      0.2287
     89  O         22.3790   11.7560   36.3990 O.2   107  VAL107     -0.2864
     90  CB        23.4350   14.8650   36.2310 C.3   107  VAL107      0.0276
     91  CG1       24.7470   14.8480   35.4530 C.3   107  VAL107      0.0022
     92  CG2       22.2170   14.8340   35.3030 C.3   107  VAL107      0.0022
     93  N         25.0560   18.1050   28.9560 N.3   126  LYS126     -0.1231
     94  CA        25.6510   17.6290   27.6980 C.3   126  LYS126      0.1693
     95  C         25.7420   16.1140   27.7450 C.2   126  LYS126      0.2592
     96  O         26.8050   15.5130   27.6150 O.2   126  LYS126     -0.2718
     97  CB        26.9950   18.3200   27.3960 C.3   126  LYS126      0.0285
     98  CG        26.9070   19.8430   27.4520 C.3   126  LYS126      0.0035
     99  CD        27.8880   20.5540   26.5200 C.3   126  LYS126      0.0206
    100  CE        27.7800   22.0640   26.7290 C.3   126  LYS126      0.1093
    101  NZ        28.0230   22.8540   25.4940 N.3   126  LYS126     -0.1314
    102  N         24.5780   15.5110   27.9280 N.am  127  ILE127     -0.1966
    103  CA        24.4890   14.1250   28.3210 C.3   127  ILE127      0.1727
    104  C         23.3730   13.3750   27.5900 C.2   127  ILE127      0.2616
    105  O         22.3380   13.9580   27.2410 O.2   127  ILE127     -0.2715
    106  CB        24.3970   14.0450   29.8740 C.3   127  ILE127      0.0290
    107  CG1       25.2080   12.8770   30.4080 C.3   127  ILE127      0.0022
    108  CG2       22.9700   14.2170   30.4210 C.3   127  ILE127      0.0023
    109  CD1       26.7090   13.1960   30.4120 C.3   127  ILE127      0.0001
    110  N         23.6070   12.0840   27.3370 N.am  128  HIS128     -0.1959
    111  CA        22.6160   11.2210   26.6660 C.3   128  HIS128      0.1787
    112  C         21.9490   10.1610   27.5580 C.2   128  HIS128      0.2620
    113  O         21.1160    9.3970   27.0850 O.2   128  HIS128     -0.2715
    114  CB        23.2440   10.5190   25.4590 C.3   128  HIS128      0.0785
    115  CG        23.8080   11.4510   24.4360 C.ar  128  HIS128      0.0821
    116  ND1       25.1260   11.8500   24.4450 N.ar  128  HIS128     -0.2267
    117  CD2       23.2410   12.0410   23.3540 C.ar  128  HIS128      0.1154
    118  CE1       25.3480   12.6500   23.4180 C.ar  128  HIS128      0.1986
    119  NE2       24.2230   12.7770   22.7360 N.ar  128  HIS128     -0.2212
    120  N         22.3170   10.0870   28.8320 N.am  129  ARG129     -0.1963
    121  CA        21.7310    9.0720   29.7290 C.3   129  ARG129      0.1729
    122  C         21.3610    9.7340   31.0440 C.2   129  ARG129      0.2616
    123  O         22.2270   10.2340   31.7570 O.2   129  ARG129     -0.2715
    124  CB        22.7160    7.9240   29.9950 C.3   129  ARG129      0.0348
    125  CG        23.5100    7.4510   28.7720 C.3   129  ARG129      0.0492
    126  CD        22.6650    6.5720   27.8680 C.3   129  ARG129      0.2205
    127  NE        23.0040    6.7680   26.4650 N.pl3 129  ARG129     -0.0865
    128  CZ        22.7680    5.8860   25.4960 C.cat 129  ARG129      0.5346
    129  NH1       22.2010    4.7150   25.7790 N.pl3 129  ARG129      0.1354
    130  NH2       23.1040    6.1730   24.2390 N.pl3 129  ARG129      0.1354
    131  N         20.0800    9.7550   31.3650 N.am  130  LEU130     -0.1964
    132  CA        19.6480   10.3440   32.6130 C.3   130  LEU130      0.1713
    133  C         18.9690    9.2670   33.4570 C.2   130  LEU130      0.2458
    134  O         17.8370    8.8980   33.1740 O.2   130  LEU130     -0.2730
    135  CB        18.7050   11.5080   32.3070 C.3   130  LEU130      0.0310
    136  CG        18.1390   12.4060   33.4130 C.3   130  LEU130      0.0022
    137  CD1       19.2240   13.0430   34.2760 C.3   130  LEU130      0.0001
    138  CD2       17.2640   13.4560   32.7800 C.3   130  LEU130      0.0001
    139  N         19.6690    8.7230   34.4740 N.am  131  PRO131     -0.2727
    140  CA        19.0370    7.7330   35.3630 C.3   131  PRO131      0.1402
    141  C         17.9210    8.3440   36.1900 C.2   131  PRO131      0.2269
    142  O         18.1000    9.4040   36.8010 O.2   131  PRO131     -0.2865
    143  CB        20.1730    7.3150   36.2840 C.3   131  PRO131      0.0296
    144  CG        21.1140    8.4500   36.2640 C.3   131  PRO131      0.0237
    145  CD        21.0690    8.9720   34.8600 C.3   131  PRO131      0.0939
    146  N         31.2950   13.0870   19.3880 N.3   202  VAL202     -0.1231
    147  CA        30.2510   13.0620   18.4020 C.3   202  VAL202      0.1692
    148  C         29.8740   11.5920   18.2990 C.2   202  VAL202      0.2592
    149  O         30.7520   10.7220   18.3420 O.2   202  VAL202     -0.2718
    150  CB        30.8010   13.6540   17.0850 C.3   202  VAL202      0.0266
    151  CG1       30.3980   12.8290   15.8980 C.3   202  VAL202      0.0020
    152  CG2       30.3890   15.1160   16.9460 C.3   202  VAL202      0.0020
    153  N         28.5810   11.3010   18.2160 N.am  203  SER203     -0.1952
    154  CA        28.1300    9.9130   18.3930 C.3   203  SER203      0.1924
    155  C         28.3020    9.0220   17.1660 C.2   203  SER203      0.2314
    156  O         28.3450    7.8040   17.3070 O.2   203  SER203     -0.2863
    157  CB        26.6970    9.8470   18.9310 C.3   203  SER203      0.2116
    158  OG        25.8710   10.8290   18.3280 O.3   203  SER203     -0.2180
    159  N         29.3030    5.0860   17.5020 N.3   220  LYS220     -0.1231
    160  CA        29.8370    4.6080   18.7850 C.3   220  LYS220      0.1693
    161  C         29.3200    3.1900   19.1200 C.2   220  LYS220      0.2592
    162  O         30.0870    2.3310   19.5380 O.2   220  LYS220     -0.2718
    163  CB        29.5250    5.6050   19.9180 C.3   220  LYS220      0.0285
    164  CG        30.2910    6.9090   19.8150 C.3   220  LYS220      0.0035
    165  CD        30.2600    7.7340   21.0890 C.3   220  LYS220      0.0206
    166  CE        31.3940    8.7560   21.0420 C.3   220  LYS220      0.1093
    167  NZ        31.4250    9.7360   22.1640 N.3   220  LYS220     -0.1314
    168  N         28.0260    2.9540   18.9130 N.am  221  PHE221     -0.1976
    169  CA        27.4450    1.6180   19.0360 C.3   221  PHE221      0.1639
    170  C         28.2320    0.5730   18.2310 C.2   221  PHE221      0.2290
    171  O         28.4340   -0.5400   18.6950 O.2   221  PHE221     -0.2864
    172  CB        25.9650    1.6260   18.6210 C.3   221  PHE221      0.0560
    173  CG        25.3560    0.2460   18.4850 C.ar  221  PHE221     -0.0200
    174  CD1       24.7650   -0.3820   19.5790 C.ar  221  PHE221     -0.0042
    175  CD2       25.3810   -0.4310   17.2650 C.ar  221  PHE221     -0.0042
    176  CE1       24.2020   -1.6580   19.4550 C.ar  221  PHE221     -0.0003
    177  CE2       24.8240   -1.7010   17.1350 C.ar  221  PHE221     -0.0003
    178  CZ        24.2340   -2.3150   18.2300 C.ar  221  PHE221     -0.0000
    179  N         19.5800    7.6590   16.1980 N.3   275  HIS275     -0.1241
    180  CA        19.9810    8.8640   16.9360 C.3   275  HIS275      0.1621
    181  C         20.1080   10.1180   16.0650 C.2   275  HIS275      0.2264
    182  O         19.9340   11.2400   16.5620 O.2   275  HIS275     -0.2867
    183  CB        21.2580    8.6130   17.7600 C.3   275  HIS275      0.0745
    184  CG        21.5490    9.6690   18.7900 C.ar  275  HIS275      0.0817
    185  ND1       21.2040    9.5360   20.1180 N.ar  275  HIS275     -0.2268
    186  CD2       22.1740   10.8700   18.6870 C.ar  275  HIS275      0.1154
    187  CE1       21.5920   10.6080   20.7890 C.ar  275  HIS275      0.1986
    188  NE2       22.1720   11.4410   19.9400 N.ar  275  HIS275     -0.2212
@<TRIPOS>BOND
     1   151   150    1
     2   181   182    2
     3   181   180    1
     4   179   180    1
     5   180   183    1
     6   152   150    1
     7   150   147    1
     8   177   175   ar
     9   177   178   ar
    10   155   156    2
    11   155   154    1
    12   175   173   ar
    13   159   160    1
    14   183   184    1
    15   153   148   am
    16   153   154    1
    17   178   176   ar
    18   170   171    2
    19   170   169    1
    20   148   149    2
    21   148   147    1
    22   158   157    1
    23   154   157    1
    24   147   146    1
    25   173   172    1
    26   173   174   ar
    27   172   169    1
    28   186   184   ar
    29   186   188   ar
    30   160   161    1
    31   160   163    1
    32   184   185   ar
    33   168   169    1
    34   168   161   am
    35   161   162    2
    36   176   174   ar
    37   164   163    1
    38   164   165    1
    39   188   187   ar
    40    11     9    1
    41   185   187   ar
    42   166   165    1
    43   166   167    1
    44     9    10    1
    45     9     8    2
    46     8     7    1
    47   119   117   ar
    48   119   118   ar
    49    37    35    1
    50   117   115   ar
    51   118   116   ar
    52     7     6    1
    53    35    36    1
    54    35    32    1
    55     6     5    1
    56    36    38    1
    57   130   128    1
    58   115   116   ar
    59   115   114    1
    60    34    33    2
    61    44    43    1
    62    54    55    1
    63    33    32    1
    64    33    39   am
    65    60    59    2
    66    32    31    1
    67    40    39    1
    68    40    43    1
    69    40    41    1
    70    45    43    1
    71   114   111    1
    72   101   100    1
    73   128   129    1
    74   128   127    2
    75     5     2    1
    76    55    56    1
    77    55    58    1
    78    42    41    2
    79    57    56    2
    80    41    46   am
    81    59    58    1
    82    59    61   am
    83     2     1    1
    84     2     3    1
    85    31    26   am
    86   127   126    1
    87    99   100    1
    88    99    98    1
    89   111   110    1
    90   111   112    1
    91   113   112    2
    92   105   104    2
    93     4     3    2
    94   110   104   am
    95    97    98    1
    96    97    94    1
    97    46    47    1
    98   112   120   am
    99   104   103    1
   100    26    27    2
   101    26    25    1
   102    96    95    2
   103    48    49    2
   104    48    47    1
   105    94    95    1
   106    94    93    1
   107    95   102   am
   108   126   125    1
   109   102   103    1
   110    29    28    1
   111    28    25    1
   112    28    30    1
   113    47    50    1
   114   103   106    1
   115    25    24    1
   116   125   124    1
   117   120   121    1
   118    50    51    1
   119   121   124    1
   120   121   122    1
   121   106   107    1
   122   106   108    1
   123    51    52   ar
   124    51    53   ar
   125   107   109    1
   126   122   131   am
   127   122   123    2
   128   131   132    1
   129   135   132    1
   130   135   136    1
   131   132   133    1
   132    69    70    1
   133    69    68    1
   134   138   136    1
   135   134   133    2
   136   136   137    1
   137   133   139   am
   138    20    21    1
   139    20    17    1
   140    68    67    1
   141    18    19    2
   142    18    17    1
   143    22    21    1
   144    22    23    1
   145   139   145    1
   146   139   140    1
   147    17    16    1
   148   145   144    1
   149    67    66    1
   150    92    90    1
   151   140   141    1
   152   140   143    1
   153    91    90    1
   154    16    14   am
   155    66    63    1
   156   141   142    2
   157    90    87    1
   158   144   143    1
   159    89    88    2
   160    14    15    2
   161    14    13    1
   162    88    87    1
   163    87    86    1
   164    84    83    1
   165    86    80   am
   166    63    62    1
   167    63    64    1
   168    74    73    2
   169    13    12    1
   170    65    64    2
   171    64    71   am
   172    80    79    1
   173    80    81    2
   174    79    82    1
   175    79    78    1
   176    83    82    1
   177    83    85    1
   178    73    78   am
   179    73    72    1
   180    71    77    1
   181    71    72    1
   182    77    76    1
   183    72    75    1
   184    76    75    1
