@<TRIPOS>MOLECULE
tmp/2v9jC00.pdb
 198 191 0 0 0
SMALL
GASTEIGER

@<TRIPOS>ATOM
      1  N         23.3210    0.0260   26.7180 N.3    47  ARG47      -0.1245
      2  CA        24.2240    1.0810   26.3140 C.3    47  ARG47       0.1563
      3  C         24.9370    1.7340   27.4690 C.2    47  ARG47       0.2260
      4  O         26.0050    2.2980   27.2950 O.2    47  ARG47      -0.2867
      5  CB        23.4500    2.1610   25.5560 C.3    47  ARG47       0.0307
      6  CG        23.6220    2.1370   24.0620 C.3    47  ARG47       0.0489
      7  CD        23.0720    0.8550   23.4690 C.3    47  ARG47       0.2205
      8  NE        22.9620    0.9560   22.0190 N.pl3  47  ARG47      -0.0865
      9  CZ        21.9560    0.4450   21.3180 C.cat  47  ARG47       0.5346
     10  NH1       20.9640   -0.1990   21.9390 N.pl3  47  ARG47       0.1354
     11  NH2       21.9320    0.5970   19.9950 N.pl3  47  ARG47       0.1354
     12  N         23.6070   12.0840   27.3370 N.3   128  HIS128     -0.1226
     13  CA        22.6160   11.2210   26.6660 C.3   128  HIS128      0.1752
     14  C         21.9490   10.1610   27.5580 C.2   128  HIS128      0.2595
     15  O         21.1160    9.3970   27.0850 O.2   128  HIS128     -0.2718
     16  CB        23.2440   10.5190   25.4590 C.3   128  HIS128      0.0759
     17  CG        23.8080   11.4510   24.4360 C.ar  128  HIS128      0.0818
     18  ND1       25.1260   11.8500   24.4450 N.ar  128  HIS128     -0.2268
     19  CD2       23.2410   12.0410   23.3540 C.ar  128  HIS128      0.1154
     20  CE1       25.3480   12.6500   23.4180 C.ar  128  HIS128      0.1986
     21  NE2       24.2230   12.7770   22.7360 N.ar  128  HIS128     -0.2212
     22  N         22.3170   10.0870   28.8320 N.am  129  ARG129     -0.1980
     23  CA        21.7310    9.0720   29.7290 C.3   129  ARG129      0.1597
     24  C         21.3610    9.7340   31.0440 C.2   129  ARG129      0.2287
     25  O         22.2270   10.2340   31.7570 O.2   129  ARG129     -0.2864
     26  CB        22.7160    7.9240   29.9950 C.3   129  ARG129      0.0334
     27  CG        23.5100    7.4510   28.7720 C.3   129  ARG129      0.0492
     28  CD        22.6650    6.5720   27.8680 C.3   129  ARG129      0.2205
     29  NE        23.0040    6.7680   26.4650 N.pl3 129  ARG129     -0.0865
     30  CZ        22.7680    5.8860   25.4960 C.cat 129  ARG129      0.5346
     31  NH1       22.2010    4.7150   25.7790 N.pl3 129  ARG129      0.1354
     32  NH2       23.1040    6.1730   24.2390 N.pl3 129  ARG129      0.1354
     33  N         16.5110    8.4850   27.8660 N.3   145  THR145     -0.1203
     34  CA        17.3060    8.9160   26.7090 C.3   145  THR145      0.1994
     35  C         16.5020    9.8400   25.8120 C.2   145  THR145      0.2618
     36  O         15.2760    9.8420   25.8590 O.2   145  THR145     -0.2717
     37  CB        17.7870    7.7110   25.8570 C.3   145  THR145      0.1784
     38  OG1       16.6760    7.1370   25.1440 O.3   145  THR145     -0.2211
     39  CG2       18.4480    6.6360   26.7290 C.3   145  THR145      0.0376
     40  N         17.1990   10.6310   24.9940 N.am  146  HIS146     -0.1961
     41  CA        16.5800   11.4850   23.9780 C.3   146  HIS146      0.1787
     42  C         15.6010   10.7190   23.1080 C.2   146  HIS146      0.2620
     43  O         14.5030   11.2100   22.8360 O.2   146  HIS146     -0.2715
     44  CB        17.6390   12.0360   23.0470 C.3   146  HIS146      0.0785
     45  CG        18.5420   13.0420   23.6720 C.ar  146  HIS146      0.0821
     46  ND1       19.7580   12.7020   24.2210 N.ar  146  HIS146     -0.2267
     47  CD2       18.4280   14.3860   23.8030 C.ar  146  HIS146      0.1154
     48  CE1       20.3460   13.7940   24.6790 C.ar  146  HIS146      0.1986
     49  NE2       19.5600   14.8280   24.4360 N.ar  146  HIS146     -0.2212
     50  N         16.0130    9.5380   22.6370 N.am  147  LYS147     -0.1977
     51  CA        15.1950    8.7460   21.7080 C.3   147  LYS147      0.1596
     52  C         13.8310    8.4520   22.3120 C.2   147  LYS147      0.2287
     53  O         12.8010    8.6630   21.6750 O.2   147  LYS147     -0.2864
     54  CB        15.8980    7.4420   21.3260 C.3   147  LYS147      0.0298
     55  CG        15.1680    6.6150   20.2530 C.3   147  LYS147      0.0038
     56  CD        15.8760    5.3060   19.9310 C.3   147  LYS147      0.0206
     57  CE        17.1770    5.5200   19.2010 C.3   147  LYS147      0.1093
     58  NZ        18.0560    4.2960   19.1450 N.3   147  LYS147     -0.1314
     59  N         28.5810   11.3010   18.2160 N.3   203  SER203     -0.1217
     60  CA        28.1300    9.9130   18.3930 C.3   203  SER203      0.1889
     61  C         28.3020    9.0220   17.1660 C.2   203  SER203      0.2288
     62  O         28.3450    7.8040   17.3070 O.2   203  SER203     -0.2866
     63  CB        26.6970    9.8470   18.9310 C.3   203  SER203      0.2089
     64  OG        25.8710   10.8290   18.3280 O.3   203  SER203     -0.2183
     65  N         27.6840    4.7940    7.6110 N.3   217  ILE217     -0.1245
     66  CA        27.7450    5.5580    8.8460 C.3   217  ILE217      0.1561
     67  C         28.4390    4.6870    9.8910 C.2   217  ILE217      0.2260
     68  O         28.1480    3.4950    9.9970 O.2   217  ILE217     -0.2867
     69  CB        26.3100    6.0190    9.2810 C.3   217  ILE217      0.0252
     70  CG1       26.3410    6.8000   10.5860 C.3   217  ILE217      0.0019
     71  CG2       25.3440    4.8480    9.4040 C.3   217  ILE217      0.0019
     72  CD1       26.1040    8.2360   10.4130 C.3   217  ILE217      0.0001
     73  N         29.0540    4.4120   13.8750 N.3   219  SER219     -0.1217
     74  CA        28.5980    4.8990   15.1900 C.3   219  SER219      0.1889
     75  C         29.4400    4.3970   16.3650 C.2   219  SER219      0.2288
     76  O         30.1890    3.4170   16.2410 O.2   219  SER219     -0.2866
     77  CB        27.1320    4.5120   15.4280 C.3   219  SER219      0.2089
     78  OG        26.5910    5.1420   16.5870 O.3   219  SER219     -0.2183
     79  N         28.0260    2.9540   18.9130 N.3   221  PHE221     -0.1227
     80  CA        27.4450    1.6180   19.0360 C.3   221  PHE221      0.1736
     81  C         28.2320    0.5730   18.2310 C.2   221  PHE221      0.2595
     82  O         28.4340   -0.5400   18.6950 O.2   221  PHE221     -0.2718
     83  CB        25.9650    1.6260   18.6210 C.3   221  PHE221      0.0547
     84  CG        25.3560    0.2460   18.4850 C.ar  221  PHE221     -0.0202
     85  CD1       24.7650   -0.3820   19.5790 C.ar  221  PHE221     -0.0042
     86  CD2       25.3810   -0.4310   17.2650 C.ar  221  PHE221     -0.0042
     87  CE1       24.2020   -1.6580   19.4550 C.ar  221  PHE221     -0.0003
     88  CE2       24.8240   -1.7010   17.1350 C.ar  221  PHE221     -0.0003
     89  CZ        24.2340   -2.3150   18.2300 C.ar  221  PHE221     -0.0000
     90  N         28.6850    0.9400   17.0330 N.am  222  ASP222     -0.1974
     91  CA        29.4470    0.0190   16.1860 C.3   222  ASP222      0.1709
     92  C         30.7970   -0.2750   16.8090 C.2   222  ASP222      0.2293
     93  O         31.5750   -1.0610   16.2710 O.2   222  ASP222     -0.2864
     94  CB        29.6440    0.5900   14.7730 C.3   222  ASP222      0.1436
     95  CG        28.3380    1.0150   14.1160 C.2   222  ASP222      0.3671
     96  OD1       27.3110    0.3120   14.2740 O.co2 222  ASP222     -0.2456
     97  OD2       28.3460    2.0540   13.4270 O.co2 222  ASP222     -0.2456
     98  N         28.3790   -6.0140   11.3140 N.3   246  ARG246     -0.1245
     99  CA        27.1000   -5.5650   11.8970 C.3   246  ARG246      0.1563
    100  C         26.0740   -6.6730   12.1400 C.2   246  ARG246      0.2260
    101  O         26.0300   -7.6760   11.4240 O.2   246  ARG246     -0.2867
    102  CB        26.4480   -4.4670   11.0420 C.3   246  ARG246      0.0307
    103  CG        26.5110   -3.0660   11.6520 C.3   246  ARG246      0.0489
    104  CD        25.4040   -2.1470   11.1050 C.3   246  ARG246      0.2205
    105  NE        25.6860   -1.6670    9.7500 N.pl3 246  ARG246     -0.0865
    106  CZ        25.9990   -0.4110    9.4310 C.cat 246  ARG246      0.5346
    107  NH1       26.0650    0.5420   10.3560 N.pl3 246  ARG246      0.1354
    108  NH2       26.2410   -0.1060    8.1650 N.pl3 246  ARG246      0.1354
    109  N         21.0960   -3.9570    6.4000 N.3   250  PHE250     -0.1241
    110  CA        21.2910   -2.5090    6.4320 C.3   250  PHE250      0.1605
    111  C         20.7460   -1.8390    5.1620 C.2   250  PHE250      0.2264
    112  O         21.3580   -1.9250    4.0920 O.2   250  PHE250     -0.2867
    113  CB        22.7910   -2.2320    6.6250 C.3   250  PHE250      0.0534
    114  CG        23.1380   -0.7850    6.7690 C.ar  250  PHE250     -0.0203
    115  CD1       22.8260   -0.0900    7.9370 C.ar  250  PHE250     -0.0042
    116  CD2       23.8050   -0.1170    5.7470 C.ar  250  PHE250     -0.0042
    117  CE1       23.1510    1.2500    8.0720 C.ar  250  PHE250     -0.0003
    118  CE2       24.1400    1.2240    5.8750 C.ar  250  PHE250     -0.0003
    119  CZ        23.8130    1.9090    7.0360 C.ar  250  PHE250     -0.0000
    120  N         20.8170    0.9180    3.8530 N.3   252  GLY252     -0.1210
    121  CA        21.5090    2.1750    3.5710 C.3   252  GLY252      0.1956
    122  C         21.4340    3.1220    4.7530 C.2   252  GLY252      0.2612
    123  O         20.6880    2.8770    5.7020 O.2   252  GLY252     -0.2717
    124  N         22.2150    4.2000    4.7070 N.am  253  VAL253     -0.1965
    125  CA        22.1730    5.2190    5.7640 C.3   253  VAL253      0.1727
    126  C         20.9080    6.0590    5.6470 C.2   253  VAL253      0.2616
    127  O         20.4580    6.3590    4.5430 O.2   253  VAL253     -0.2715
    128  CB        23.4780    6.0880    5.8490 C.3   253  VAL253      0.0290
    129  CG1       24.2350    6.0890    4.5430 C.3   253  VAL253      0.0023
    130  CG2       23.1840    7.4930    6.2970 C.3   253  VAL253      0.0023
    131  N         20.3200    6.4010    6.7880 N.am  254  LEU254     -0.1977
    132  CA        19.1080    7.2050    6.8220 C.3   254  LEU254      0.1596
    133  C         19.4320    8.6980    6.6880 C.2   254  LEU254      0.2287
    134  O         20.1920    9.2640    7.4920 O.2   254  LEU254     -0.2864
    135  CB        18.2980    6.8870    8.0810 C.3   254  LEU254      0.0297
    136  CG        17.5340    5.5600    7.9440 C.3   254  LEU254      0.0022
    137  CD1       17.7410    4.6300    9.1520 C.3   254  LEU254      0.0001
    138  CD2       16.0450    5.8110    7.6710 C.3   254  LEU254      0.0001
    139  N         13.9390    4.9120   14.6380 N.3   273  GLU273     -0.1231
    140  CA        14.5090    4.5240   15.9430 C.3   273  GLU273      0.1699
    141  C         16.0350    4.6700   15.9790 C.2   273  GLU273      0.2592
    142  O         16.7470    3.8000   16.5080 O.2   273  GLU273     -0.2718
    143  CB        14.0640    3.1020   16.3500 C.3   273  GLU273      0.0402
    144  CG        12.6360    3.0450   16.8540 C.3   273  GLU273      0.1161
    145  CD        12.0450    1.6480   16.8780 C.2   273  GLU273      0.3649
    146  OE1       11.0330    1.4500   16.1730 O.co2 273  GLU273     -0.2457
    147  OE2       12.5610    0.7510   17.5940 O.co2 273  GLU273     -0.2457
    148  N         16.5140    5.7900   15.4280 N.am  274  VAL274     -0.1966
    149  CA        17.9420    6.0600   15.3000 C.3   274  VAL274      0.1727
    150  C         18.3090    7.4510   15.8610 C.2   274  VAL274      0.2616
    151  O         17.4400    8.3240   15.9940 O.2   274  VAL274     -0.2715
    152  CB        18.3780    5.8180   13.8260 C.3   274  VAL274      0.0290
    153  CG1       18.6520    7.1180   13.0570 C.3   274  VAL274      0.0023
    154  CG2       19.5540    4.8660   13.7720 C.3   274  VAL274      0.0023
    155  N         19.5800    7.6590   16.1980 N.am  275  HIS275     -0.1959
    156  CA        19.9810    8.8640   16.9360 C.3   275  HIS275      0.1787
    157  C         20.1080   10.1180   16.0650 C.2   275  HIS275      0.2620
    158  O         19.9340   11.2400   16.5620 O.2   275  HIS275     -0.2715
    159  CB        21.2580    8.6130   17.7600 C.3   275  HIS275      0.0785
    160  CG        21.5490    9.6690   18.7900 C.ar  275  HIS275      0.0821
    161  ND1       21.2040    9.5360   20.1180 N.ar  275  HIS275     -0.2267
    162  CD2       22.1740   10.8700   18.6870 C.ar  275  HIS275      0.1154
    163  CE1       21.5920   10.6080   20.7890 C.ar  275  HIS275      0.1986
    164  NE2       22.1720   11.4410   19.9400 N.ar  275  HIS275     -0.2212
    165  N         20.3880    9.9470   14.7700 N.am  276  ARG276     -0.1963
    166  CA        20.5230   11.0930   13.8610 C.3   276  ARG276      0.1729
    167  C         20.2760   10.7490   12.4010 C.2   276  ARG276      0.2616
    168  O         20.4130    9.5920   11.9980 O.2   276  ARG276     -0.2715
    169  CB        21.9140   11.7300   13.9840 C.3   276  ARG276      0.0348
    170  CG        22.9990   11.1760   13.0250 C.3   276  ARG276      0.0492
    171  CD        23.4440    9.7780   13.4060 C.3   276  ARG276      0.2205
    172  NE        24.0340    9.7270   14.7400 N.pl3 276  ARG276     -0.0865
    173  CZ        23.9820    8.6670   15.5380 C.cat 276  ARG276      0.5346
    174  NH1       23.3520    7.5660   15.1490 N.pl3 276  ARG276      0.1354
    175  NH2       24.5510    8.7100   16.7340 N.pl3 276  ARG276      0.1354
    176  N         19.9320   11.7790   11.6240 N.am  277  LEU277     -0.1963
    177  CA        19.8810   11.7070   10.1770 C.3   277  LEU277      0.1728
    178  C         21.0890   12.4020    9.5960 C.2   277  LEU277      0.2616
    179  O         21.5190   13.4570   10.0990 O.2   277  LEU277     -0.2715
    180  CB        18.6230   12.3860    9.6530 C.3   277  LEU277      0.0311
    181  CG        17.2880   11.8730   10.2080 C.3   277  LEU277      0.0022
    182  CD1       16.1070   12.6860    9.6270 C.3   277  LEU277      0.0001
    183  CD2       17.0970   10.3510    9.9720 C.3   277  LEU277      0.0001
    184  N         21.6350   11.8390    8.5270 N.am  278  VAL278     -0.1977
    185  CA        22.6580   12.5570    7.7780 C.3   278  VAL278      0.1596
    186  C         22.0040   13.5040    6.7710 C.2   278  VAL278      0.2287
    187  O         21.2510   13.0520    5.8980 O.2   278  VAL278     -0.2864
    188  CB        23.6010   11.6130    7.0350 C.3   278  VAL278      0.0276
    189  CG1       24.7070   12.4260    6.3550 C.3   278  VAL278      0.0022
    190  CG2       24.1840   10.5450    8.0080 C.3   278  VAL278      0.0022
    191  N         19.0170   13.8470   17.5790 N.3   292  LEU292     -0.1245
    192  CA        17.9510   13.9850   18.5730 C.3   292  LEU292      0.1561
    193  C         18.1840   15.1710   19.5290 C.2   292  LEU292      0.2260
    194  O         17.2420   15.8900   19.8620 O.2   292  LEU292     -0.2867
    195  CB        17.7750   12.6880   19.3700 C.3   292  LEU292      0.0270
    196  CG        17.3970   11.4510   18.5540 C.3   292  LEU292      0.0019
    197  CD1       17.5660   10.1840   19.3870 C.3   292  LEU292      0.0001
    198  CD2       15.9870   11.5690   17.9820 C.3   292  LEU292      0.0001
@<TRIPOS>BOND
     1   121   120    1
     2   121   122    1
     3   112   111    2
     4   127   126    2
     5   129   128    1
     6   124   122   am
     7   124   125    1
     8   122   123    2
     9   111   110    1
    10   126   125    1
    11   126   131   am
    12   116   118   ar
    13   116   114   ar
    14   125   128    1
    15   128   130    1
    16   118   119   ar
    17   187   186    2
    18   189   188    1
    19   109   110    1
    20   110   113    1
    21   113   114    1
    22   133   132    1
    23   133   134    2
    24   114   115   ar
    25   186   185    1
    26   131   132    1
    27   132   135    1
    28   188   185    1
    29   188   190    1
    30   119   117   ar
    31    65    66    1
    32   138   136    1
    33   185   184    1
    34   115   117   ar
    35   136   135    1
    36   136   137    1
    37   108   106    1
    38   184   178   am
    39    66    69    1
    40    66    67    1
    41    69    71    1
    42    69    70    1
    43   106   105    2
    44   106   107    1
    45   178   179    2
    46   178   177    1
    47   182   181    1
    48   180   177    1
    49   180   181    1
    50   105   104    1
    51    67    68    2
    52   183   181    1
    53   177   176    1
    54    72    70    1
    55   102   103    1
    56   102    99    1
    57   104   103    1
    58    98    99    1
    59   101   100    2
    60   176   167   am
    61    99   100    1
    62   168   167    2
    63   167   166    1
    64   170   171    1
    65   170   169    1
    66   153   152    1
    67   171   172    1
    68    97    95   ar
    69   154   152    1
    70   152   149    1
    71   166   169    1
    72   166   165    1
    73    73    74    1
    74    95    96   ar
    75    95    94    1
    76   139   140    1
    77   172   173    2
    78   165   157   am
    79    94    91    1
    80   174   173    1
    81    74    77    1
    82    74    75    1
    83   149   148    1
    84   149   150    1
    85   148   141   am
    86    77    78    1
    87   173   175    1
    88   150   151    2
    89   150   155   am
    90   140   141    1
    91   140   143    1
    92   141   142    2
    93   157   158    2
    94   157   156    1
    95   146   145   ar
    96    91    92    1
    97    91    90    1
    98   155   156    1
    99    76    75    2
   100    93    92    2
   101   143   144    1
   102   144   145    1
   103   145   147   ar
   104   156   159    1
   105    90    81   am
   106    88    86   ar
   107    88    89   ar
   108    61    62    2
   109    61    60    1
   110    86    84   ar
   111   191   192    1
   112   159   160    1
   113   198   196    1
   114    59    60    1
   115    89    87   ar
   116    81    82    2
   117    81    80    1
   118    64    63    1
   119    60    63    1
   120    84    83    1
   121    84    85   ar
   122   196   195    1
   123   196   197    1
   124   192   195    1
   125   192   193    1
   126    83    80    1
   127   162   160   ar
   128   162   164   ar
   129   160   161   ar
   130    79    80    1
   131    58    57    1
   132    57    56    1
   133    87    85   ar
   134   193   194    2
   135    56    55    1
   136   164   163   ar
   137    11     9    1
   138   161   163   ar
   139    55    54    1
   140     9    10    1
   141     9     8    2
   142    54    51    1
   143    53    52    2
   144    51    52    1
   145    51    50    1
   146     8     7    1
   147    50    42   am
   148    21    19   ar
   149    21    20   ar
   150    43    42    2
   151    44    45    1
   152    44    41    1
   153    42    41    1
   154    19    17   ar
   155    20    18   ar
   156     7     6    1
   157    45    47   ar
   158    45    46   ar
   159    47    49   ar
   160    41    40    1
   161     6     5    1
   162    46    48   ar
   163    32    30    1
   164    17    18   ar
   165    17    16    1
   166    49    48   ar
   167    40    35   am
   168    38    37    1
   169    16    13    1
   170    30    31    1
   171    30    29    2
   172     5     2    1
   173    35    36    2
   174    35    34    1
   175    37    34    1
   176    37    39    1
   177     2     1    1
   178     2     3    1
   179    29    28    1
   180    13    12    1
   181    13    14    1
   182    34    33    1
   183    15    14    2
   184     4     3    2
   185    14    22   am
   186    28    27    1
   187    27    26    1
   188    22    23    1
   189    23    26    1
   190    23    24    1
   191    24    25    2
