@<TRIPOS>MOLECULE
tmp/2v9kA00.pdb
 150 141 0 0 0
SMALL
GASTEIGER

@<TRIPOS>ATOM
      1  N        -29.4720  -14.8410   29.1240 N.3   280  GLY280     -0.1210
      2  CA       -28.9740  -14.8660   30.4980 C.3   280  GLY280      0.1956
      3  C        -27.8990  -15.9210   30.6680 C.2   280  GLY280      0.2612
      4  O        -27.4200  -16.4950   29.6910 O.2   280  GLY280     -0.2717
      5  N        -27.5530  -16.1940   31.9230 N.am  281  ARG281     -0.1965
      6  CA       -26.4300  -17.0490   32.2780 C.3   281  ARG281      0.1729
      7  C        -26.6260  -17.4330   33.7330 C.2   281  ARG281      0.2616
      8  O        -27.3020  -16.7230   34.4780 O.2   281  ARG281     -0.2715
      9  CB       -25.1320  -16.2410   32.1090 C.3   281  ARG281      0.0348
     10  CG       -23.8430  -17.0100   32.3000 C.3   281  ARG281      0.0492
     11  CD       -22.6120  -16.1180   32.1270 C.3   281  ARG281      0.2205
     12  NE       -21.3960  -16.8700   32.4390 N.pl3 281  ARG281     -0.0865
     13  CZ       -20.4490  -17.1910   31.5590 C.cat 281  ARG281      0.5346
     14  NH1      -19.3970  -17.9030   31.9490 N.pl3 281  ARG281      0.1354
     15  NH2      -20.5480  -16.7980   30.2940 N.pl3 281  ARG281      0.1354
     16  N        -26.0590  -18.5590   34.1460 N.am  282  GLU282     -0.1963
     17  CA       -25.9680  -18.8770   35.5640 C.3   282  GLU282      0.1733
     18  C        -24.5150  -19.1710   35.9590 C.2   282  GLU282      0.2616
     19  O        -23.6850  -19.5180   35.1050 O.2   282  GLU282     -0.2715
     20  CB       -26.8890  -20.0480   35.9420 C.3   282  GLU282      0.0429
     21  CG       -26.5610  -21.3790   35.2570 C.3   282  GLU282      0.1163
     22  CD       -26.9390  -21.3910   33.7700 C.2   282  GLU282      0.3649
     23  OE1      -26.0590  -21.6410   32.9100 O.co2 282  GLU282     -0.2457
     24  OE2      -28.1210  -21.1380   33.4640 O.co2 282  GLU282     -0.2457
     25  N        -24.2300  -19.0450   37.2560 N.am  283  ASP283     -0.1971
     26  CA       -22.8840  -19.2730   37.8030 C.3   283  ASP283      0.1709
     27  C        -22.4620  -20.7300   37.6610 C.2   283  ASP283      0.2293
     28  O        -23.3050  -21.6000   37.4110 O.2   283  ASP283     -0.2864
     29  CB       -22.8550  -18.8670   39.2720 C.3   283  ASP283      0.1436
     30  CG       -23.1170  -17.3800   39.4740 C.2   283  ASP283      0.3671
     31  OD1      -23.4380  -16.9850   40.6170 O.co2 283  ASP283     -0.2456
     32  OD2      -23.0000  -16.6060   38.4950 O.co2 283  ASP283     -0.2456
     33  N        -24.4410  -23.3930   39.7060 N.3   286  VAL286     -0.1245
     34  CA       -25.8970  -23.3220   39.5800 C.3   286  VAL286      0.1561
     35  C        -26.3880  -24.2440   38.4670 C.2   286  VAL286      0.2260
     36  O        -25.9010  -24.1800   37.3320 O.2   286  VAL286     -0.2867
     37  CB       -26.3620  -21.8520   39.3460 C.3   286  VAL286      0.0252
     38  CG1      -27.8610  -21.7530   39.2120 C.3   286  VAL286      0.0019
     39  CG2      -25.8770  -20.9500   40.5080 C.3   286  VAL286      0.0019
     40  N        -32.7350  -23.1170   29.6500 N.3   293  ARG293     -0.1245
     41  CA       -32.4630  -21.7490   29.2310 C.3   293  ARG293      0.1563
     42  C        -32.3040  -21.6510   27.7080 C.2   293  ARG293      0.2260
     43  O        -31.5690  -22.4560   27.1120 O.2   293  ARG293     -0.2867
     44  CB       -31.1870  -21.2380   29.9330 C.3   293  ARG293      0.0307
     45  CG       -30.7780  -19.8270   29.5410 C.3   293  ARG293      0.0489
     46  CD       -29.4630  -19.3790   30.1800 C.3   293  ARG293      0.2205
     47  NE       -29.4420  -19.5720   31.6280 N.pl3 293  ARG293     -0.0865
     48  CZ       -30.0060  -18.7690   32.5260 C.cat 293  ARG293      0.5346
     49  NH1      -30.6650  -17.6730   32.1530 N.pl3 293  ARG293      0.1354
     50  NH2      -29.9180  -19.0810   33.8180 N.pl3 293  ARG293      0.1354
     51  N        -33.6280  -11.7870   28.5080 N.3   346  GLU346     -0.1245
     52  CA       -32.6060  -11.4410   29.4960 C.3   346  GLU346      0.1567
     53  C        -32.9720  -10.1660   30.2740 C.2   346  GLU346      0.2260
     54  O        -32.8290  -10.1070   31.5010 O.2   346  GLU346     -0.2867
     55  CB       -31.2900  -11.2310   28.7480 C.3   346  GLU346      0.0388
     56  CG       -30.0120  -11.4630   29.5090 C.3   346  GLU346      0.1160
     57  CD       -28.8100  -11.4190   28.5590 C.2   346  GLU346      0.3649
     58  OE1      -28.3060  -12.4970   28.1700 O.co2 346  GLU346     -0.2457
     59  OE2      -28.3970  -10.3040   28.1670 O.co2 346  GLU346     -0.2457
     60  N        -36.4320  -19.8370   40.7320 N.3   353  TYR353     -0.1241
     61  CA       -35.2900  -20.4810   41.3810 C.3   353  TYR353      0.1605
     62  C        -35.6920  -21.3380   42.5630 C.2   353  TYR353      0.2264
     63  O        -36.7160  -21.0960   43.1800 O.2   353  TYR353     -0.2867
     64  CB       -34.3410  -19.4170   41.9280 C.3   353  TYR353      0.0534
     65  CG       -33.7950  -18.4770   40.8970 C.ar  353  TYR353     -0.0201
     66  CD1      -34.4630  -17.2970   40.5750 C.ar  353  TYR353     -0.0009
     67  CD2      -32.5980  -18.7640   40.2440 C.ar  353  TYR353     -0.0009
     68  CE1      -33.9400  -16.4260   39.6130 C.ar  353  TYR353      0.0417
     69  CE2      -32.0770  -17.9100   39.2930 C.ar  353  TYR353      0.0417
     70  CZ       -32.7440  -16.7440   38.9830 C.ar  353  TYR353      0.1957
     71  OH       -32.2020  -15.8960   38.0340 O.3   353  TYR353     -0.2866
     72  N        -19.0450   -9.6760   44.7410 N.3   386  ARG386     -0.1245
     73  CA       -18.4010  -10.6410   43.8500 C.3   386  ARG386      0.1563
     74  C        -18.3640  -10.2350   42.3720 C.2   386  ARG386      0.2260
     75  O        -17.7070  -10.8980   41.5680 O.2   386  ARG386     -0.2867
     76  CB       -19.0570  -12.0170   43.9960 C.3   386  ARG386      0.0307
     77  CG       -20.5220  -12.0660   43.5890 C.3   386  ARG386      0.0489
     78  CD       -21.0450  -13.4790   43.6850 C.3   386  ARG386      0.2205
     79  NE       -22.5010  -13.5290   43.6100 N.pl3 386  ARG386     -0.0865
     80  CZ       -23.1930  -14.0370   42.5960 C.cat 386  ARG386      0.5346
     81  NH1      -24.5170  -14.0340   42.6390 N.pl3 386  ARG386      0.1354
     82  NH2      -22.5690  -14.5520   41.5430 N.pl3 386  ARG386      0.1354
     83  N        -18.7780   -4.9430   36.7700 N.3   391  ARG391     -0.1245
     84  CA       -19.7920   -3.9050   36.5580 C.3   391  ARG391      0.1563
     85  C        -19.6670   -2.7360   37.5390 C.2   391  ARG391      0.2260
     86  O        -19.1470   -2.9100   38.6460 O.2   391  ARG391     -0.2867
     87  CB       -21.2160   -4.4880   36.5990 C.3   391  ARG391      0.0307
     88  CG       -21.3660   -5.9010   37.1750 C.3   391  ARG391      0.0489
     89  CD       -21.2890   -6.9730   36.0830 C.3   391  ARG391      0.2205
     90  NE       -22.0960   -6.6380   34.9060 N.pl3 391  ARG391     -0.0865
     91  CZ       -23.3970   -6.8830   34.7820 C.cat 391  ARG391      0.5346
     92  NH1      -24.0700   -7.4740   35.7620 N.pl3 391  ARG391      0.1354
     93  NH2      -24.0300   -6.5340   33.6700 N.pl3 391  ARG391      0.1354
     94  N        -29.8480   -1.2270   42.2630 N.3   396  ARG396     -0.1245
     95  CA       -31.0010   -1.6100   41.4550 C.3   396  ARG396      0.1563
     96  C        -32.1950   -1.9320   42.3410 C.2   396  ARG396      0.2260
     97  O        -32.0430   -2.5460   43.4030 O.2   396  ARG396     -0.2867
     98  CB       -30.6870   -2.8170   40.5710 C.3   396  ARG396      0.0307
     99  CG       -30.0450   -2.4860   39.2400 C.3   396  ARG396      0.0489
    100  CD       -30.6090   -3.3740   38.1330 C.3   396  ARG396      0.2205
    101  NE       -30.3460   -4.7940   38.3680 N.pl3 396  ARG396     -0.0865
    102  CZ       -29.4890   -5.5360   37.6690 C.cat 396  ARG396      0.5346
    103  NH1      -28.8010   -5.0130   36.6610 N.pl3 396  ARG396      0.1354
    104  NH2      -29.3270   -6.8140   37.9770 N.pl3 396  ARG396      0.1354
    105  N        -32.6350  -10.0940   36.2060 N.3   422  GLY422     -0.1210
    106  CA       -31.4520   -9.4370   36.7750 C.3   422  GLY422      0.1956
    107  C        -31.2600   -9.4860   38.2840 C.2   422  GLY422      0.2613
    108  O        -30.2700   -8.9700   38.7900 O.2   422  GLY422     -0.2717
    109  N        -32.1910  -10.1000   39.0120 N.am  423  THR423     -0.1938
    110  CA       -32.0810  -10.2100   40.4740 C.3   423  THR423      0.2028
    111  C        -30.9890  -11.2030   40.8740 C.2   423  THR423      0.2642
    112  O        -30.9570  -12.3410   40.3770 O.2   423  THR423     -0.2714
    113  CB       -33.4260  -10.6450   41.1110 C.3   423  THR423      0.1808
    114  OG1      -34.4750   -9.8100   40.6230 O.3   423  THR423     -0.2208
    115  CG2      -33.3900  -10.5420   42.6440 C.3   423  THR423      0.0379
    116  N        -30.1000  -10.7730   41.7670 N.am  424  TYR424     -0.1959
    117  CA       -29.0850  -11.6590   42.3250 C.3   424  TYR424      0.1771
    118  C        -29.6460  -12.4160   43.5150 C.2   424  TYR424      0.2619
    119  O        -29.9250  -11.8300   44.5590 O.2   424  TYR424     -0.2715
    120  CB       -27.8390  -10.8750   42.7390 C.3   424  TYR424      0.0574
    121  CG       -27.0240  -10.4000   41.5670 C.ar  424  TYR424     -0.0198
    122  CD1      -27.2350   -9.1340   41.0190 C.ar  424  TYR424     -0.0009
    123  CD2      -26.0400  -11.2160   40.9970 C.ar  424  TYR424     -0.0009
    124  CE1      -26.4860   -8.6890   39.9390 C.ar  424  TYR424      0.0417
    125  CE2      -25.2820  -10.7730   39.9070 C.ar  424  TYR424      0.0417
    126  CZ       -25.5160   -9.5110   39.3940 C.ar  424  TYR424      0.1957
    127  OH       -24.7820   -9.0620   38.3260 O.3   424  TYR424     -0.2866
    128  N        -29.7990  -13.7250   43.3490 N.am  425  ILE425     -0.1977
    129  CA       -30.4890  -14.5440   44.3330 C.3   425  ILE425      0.1596
    130  C        -29.6220  -14.8050   45.5590 C.2   425  ILE425      0.2287
    131  O        -30.1070  -14.6880   46.6840 O.2   425  ILE425     -0.2864
    132  CB       -31.0030  -15.8820   43.7300 C.3   425  ILE425      0.0276
    133  CG1      -31.7530  -15.6310   42.4160 C.3   425  ILE425      0.0022
    134  CG2      -31.8760  -16.6420   44.7400 C.3   425  ILE425      0.0022
    135  CD1      -32.9650  -14.6550   42.5130 C.3   425  ILE425      0.0001
    136  N        -28.1520  -23.5140   44.6980 N.3   453  LEU453     -0.1245
    137  CA       -29.0790  -22.7150   43.8940 C.3   453  LEU453      0.1561
    138  C        -29.3720  -23.4320   42.5730 C.2   453  LEU453      0.2260
    139  O        -28.4580  -23.9560   41.9470 O.2   453  LEU453     -0.2867
    140  CB       -28.4850  -21.3370   43.5960 C.3   453  LEU453      0.0270
    141  CG       -29.3800  -20.3790   42.7790 C.3   453  LEU453      0.0019
    142  CD1      -30.6870  -20.1050   43.4990 C.3   453  LEU453      0.0001
    143  CD2      -28.6480  -19.0760   42.4470 C.3   453  LEU453      0.0001
    144  N        -31.7520  -22.8600   38.8990 N.3   455  VAL455     -0.1245
    145  CA       -32.6990  -22.1150   38.0740 C.3   455  VAL455      0.1561
    146  C        -33.8060  -23.0980   37.7040 C.2   455  VAL455      0.2260
    147  O        -33.5300  -24.1550   37.1330 O.2   455  VAL455     -0.2867
    148  CB       -32.0330  -21.5600   36.8110 C.3   455  VAL455      0.0252
    149  CG1      -33.0390  -20.7950   35.9770 C.3   455  VAL455      0.0019
    150  CG2      -30.8070  -20.6810   37.1780 C.3   455  VAL455      0.0019
@<TRIPOS>BOND
     1    43    42    2
     2    42    41    1
     3    59    57   ar
     4    58    57   ar
     5    51    52    1
     6    57    56    1
     7    55    52    1
     8    55    56    1
     9     1     2    1
    10    41    40    1
    11    41    44    1
    12    52    53    1
    13    45    44    1
    14    45    46    1
    15     4     3    2
    16    46    47    1
    17    53    54    2
    18    15    13    1
    19     2     3    1
    20     3     5   am
    21    13    14    1
    22    13    12    2
    23    47    48    2
    24     5     6    1
    25     9     6    1
    26     9    10    1
    27    11    10    1
    28    11    12    1
    29    49    48    1
    30     6     7    1
    31    48    50    1
    32    23    22   ar
    33    24    22   ar
    34    93    91    1
    35     7    16   am
    36     7     8    2
    37    22    21    1
    38    16    17    1
    39    91    90    2
    40    91    92    1
    41    90    89    1
    42    19    18    2
    43    21    20    1
    44    17    20    1
    45    17    18    1
    46    18    25   am
    47   149   148    1
    48    89    88    1
    49   105   106    1
    50    84    87    1
    51    84    83    1
    52    84    85    1
    53    87    88    1
    54   103   102    1
    55   106   107    1
    56   148   150    1
    57   148   145    1
    58   147   146    2
    59    25    26    1
    60    36    35    2
    61    28    27    2
    62    85    86    2
    63    27    26    1
    64   102   104    1
    65   102   101    2
    66   146   145    1
    67    26    29    1
    68    71    70    1
    69   145   144    1
    70   100   101    1
    71   100    99    1
    72   107   108    2
    73   107   109   am
    74   127   126    1
    75    35    34    1
    76    32    30   ar
    77    70    69   ar
    78    70    68   ar
    79   109   110    1
    80    38    37    1
    81    99    98    1
    82    29    30    1
    83    69    67   ar
    84    37    34    1
    85    37    39    1
    86   126   125   ar
    87   126   124   ar
    88    30    31   ar
    89    34    33    1
    90    68    66   ar
    91   125   123   ar
    92   124   122   ar
    93    67    65   ar
    94   112   111    2
    95   110   111    1
    96   110   113    1
    97    98    95    1
    98    66    65   ar
    99   114   113    1
   100    60    61    1
   101   111   116   am
   102    65    64    1
   103   123   121   ar
   104   122   121   ar
   105   113   115    1
   106    61    64    1
   107    61    62    1
   108    95    94    1
   109    95    96    1
   110    82    80    1
   111   121   120    1
   112    75    74    2
   113   116   117    1
   114   139   138    2
   115   117   120    1
   116   117   118    1
   117    96    97    2
   118    74    73    1
   119   133   135    1
   120   133   132    1
   121   143   141    1
   122    62    63    2
   123   138   137    1
   124    80    81    1
   125    80    79    2
   126   141   142    1
   127   141   140    1
   128   128   118   am
   129   128   129    1
   130   118   119    2
   131    77    78    1
   132    77    76    1
   133   140   137    1
   134    79    78    1
   135   132   129    1
   136   132   134    1
   137    73    76    1
   138    73    72    1
   139   137   136    1
   140   129   130    1
   141   130   131    2
