@<TRIPOS>MOLECULE
tmp/2v9nB00.pdb
 94 93 0 0 0
SMALL
GASTEIGER

@<TRIPOS>ATOM
      1  N         95.3470  -41.0460   55.2000 N.3    29  ASN29      -0.1225
      2  CA        95.7210  -39.6820   55.5850 C.3    29  ASN29       0.1785
      3  C         94.5290  -38.7220   55.5700 C.2    29  ASN29       0.2598
      4  O         94.6980  -37.5020   55.4830 O.2    29  ASN29      -0.2718
      5  CB        96.7890  -39.1560   54.6200 C.3    29  ASN29       0.1169
      6  CG        96.2420  -38.9710   53.2230 C.2    29  ASN29       0.2627
      7  OD1       95.6430  -39.8850   52.6760 O.2    29  ASN29      -0.2716
      8  ND2       96.3930  -37.7750   52.6650 N.am   29  ASN29      -0.0877
      9  N         93.3160  -39.2530   55.6460 N.am   30  GLY30      -0.1942
     10  CA        92.1330  -38.4030   55.6450 C.3    30  GLY30       0.2014
     11  C         92.1130  -37.4920   56.8490 C.2    30  GLY30       0.2639
     12  O         92.4240  -37.9350   57.9590 O.2    30  GLY30      -0.2714
     13  N         91.7650  -36.2200   56.6210 N.am   31  GLY31      -0.1939
     14  CA        91.6520  -35.2200   57.6690 C.3    31  GLY31       0.2014
     15  C         92.9070  -34.3830   57.8260 C.2    31  GLY31       0.2638
     16  O         93.9880  -34.7520   57.3750 O.2    31  GLY31      -0.2714
     17  N         92.7440  -33.2350   58.4650 N.am   32  ASN32      -0.1972
     18  CA        93.8690  -32.3540   58.7900 C.3    32  ASN32       0.1688
     19  C         93.4310  -31.3800   59.8720 C.2    32  ASN32       0.2292
     20  O         92.2370  -31.1430   60.0530 O.2    32  ASN32      -0.2864
     21  CB        94.4540  -31.6500   57.5460 C.3    32  ASN32       0.1181
     22  CG        93.4440  -31.5010   56.4090 C.2    32  ASN32       0.2629
     23  OD1       92.4960  -30.7210   56.4960 O.2    32  ASN32      -0.2716
     24  ND2       93.6510  -32.2560   55.3310 N.am   32  ASN32      -0.0877
     25  N         98.2940  -30.5330   52.7470 N.3   116  SER116     -0.1202
     26  CA        97.9770  -29.9880   51.4310 C.3   116  SER116      0.2020
     27  C         96.6650  -29.2000   51.4130 C.2   116  SER116      0.2618
     28  O         96.3500  -28.5610   50.4140 O.2   116  SER116     -0.2717
     29  CB        97.9230  -31.1090   50.3840 C.3   116  SER116      0.2103
     30  OG        96.8640  -31.9940   50.6520 O.3   116  SER116     -0.2182
     31  N         95.8980  -29.2440   52.5090 N.am  117  GLU117     -0.1979
     32  CA        94.7210  -28.3790   52.6620 C.3   117  GLU117      0.1602
     33  C         95.0460  -27.1080   53.4600 C.2   117  GLU117      0.2287
     34  O         94.1530  -26.4670   54.0140 O.2   117  GLU117     -0.2864
     35  CB        93.5630  -29.1500   53.3180 C.3   117  GLU117      0.0415
     36  CG        93.0090  -30.3000   52.4650 C.3   117  GLU117      0.1163
     37  CD        92.3080  -29.8300   51.1800 C.2   117  GLU117      0.3649
     38  OE1       91.8770  -30.6840   50.3760 O.co2 117  GLU117     -0.2457
     39  OE2       92.1810  -28.6060   50.9700 O.co2 117  GLU117     -0.2457
     40  N         89.4250  -30.6280   59.8550 N.3   141  HIS141     -0.1241
     41  CA        88.7810  -31.3600   58.7680 C.3   141  HIS141      0.1621
     42  C         88.8880  -32.8480   59.0530 C.2   141  HIS141      0.2264
     43  O         89.9450  -33.3400   59.4480 O.2   141  HIS141     -0.2867
     44  CB        89.4730  -31.0490   57.4330 C.3   141  HIS141      0.0745
     45  CG        89.1000  -31.9670   56.2920 C.ar  141  HIS141      0.0817
     46  ND1       87.8180  -32.0890   55.7910 N.ar  141  HIS141     -0.2268
     47  CD2       89.8740  -32.7680   55.5130 C.ar  141  HIS141      0.1154
     48  CE1       87.8120  -32.9470   54.7880 C.ar  141  HIS141      0.1986
     49  NE2       89.0500  -33.3560   54.5820 N.ar  141  HIS141     -0.2212
     50  N         86.7930  -36.8810   57.8480 N.3   143  HIS143     -0.1241
     51  CA        85.8520  -37.5540   56.9680 C.3   143  HIS143      0.1621
     52  C         84.7490  -38.2140   57.7960 C.2   143  HIS143      0.2264
     53  O         84.6790  -39.4380   57.9300 O.2   143  HIS143     -0.2867
     54  CB        86.6130  -38.5350   56.0740 C.3   143  HIS143      0.0745
     55  CG        87.6030  -37.8660   55.1780 C.ar  143  HIS143      0.0817
     56  ND1       88.5200  -38.5690   54.4240 N.ar  143  HIS143     -0.2268
     57  CD2       87.7970  -36.5580   54.8900 C.ar  143  HIS143      0.1154
     58  CE1       89.2430  -37.7140   53.7210 C.ar  143  HIS143      0.1986
     59  NE2       88.8250  -36.4890   53.9820 N.ar  143  HIS143     -0.2212
     60  N         89.5690  -31.0670   45.7320 N.3   188  PRO188     -0.2102
     61  CA        90.3650  -30.8770   46.9500 C.3   188  PRO188      0.1504
     62  C         91.7440  -30.2700   46.7190 C.2   188  PRO188      0.2576
     63  O         92.3240  -30.4170   45.6440 O.2   188  PRO188     -0.2718
     64  CB        90.5520  -32.3080   47.4960 C.3   188  PRO188      0.0282
     65  CG        89.5600  -33.1370   46.8120 C.3   188  PRO188      0.0208
     66  CD        89.2540  -32.4900   45.4980 C.3   188  PRO188      0.0893
     67  N         92.2620  -29.6160   47.7520 N.am  189  GLY189     -0.1957
     68  CA        93.6450  -29.1670   47.7820 C.3   189  GLY189      0.1869
     69  C         93.9240  -27.9680   46.9090 C.2   189  GLY189      0.2309
     70  O         95.0790  -27.7150   46.5750 O.2   189  GLY189     -0.2863
     71  N         81.7020  -30.4410   52.8420 N.3   209  TRP209     -0.1241
     72  CA        82.1920  -30.7280   51.5020 C.3   209  TRP209      0.1605
     73  C         81.4540  -31.9880   51.0110 C.2   209  TRP209      0.2264
     74  O         81.7590  -33.1030   51.4690 O.2   209  TRP209     -0.2867
     75  CB        83.6910  -31.0050   51.5930 C.3   209  TRP209      0.0550
     76  CG        84.5380  -29.7730   51.7600 C.ar  209  TRP209      0.0003
     77  CD1       84.1240  -28.4920   51.9880 C.ar  209  TRP209      0.0946
     78  CD2       85.9670  -29.7320   51.7300 C.ar  209  TRP209      0.0152
     79  NE1       85.2100  -27.6520   52.0790 N.ar  209  TRP209     -0.2442
     80  CE2       86.3540  -28.3860   51.9180 C.ar  209  TRP209      0.0810
     81  CE3       86.9540  -30.6950   51.5270 C.ar  209  TRP209      0.0012
     82  CZ2       87.6970  -27.9820   51.9120 C.ar  209  TRP209      0.0191
     83  CZ3       88.2860  -30.2960   51.5250 C.ar  209  TRP209      0.0001
     84  CH2       88.6440  -28.9440   51.7090 C.ar  209  TRP209      0.0015
     85  N         82.5470  -35.9600   50.7240 N.3   212  HIS212     -0.1241
     86  CA        83.9300  -35.8090   51.1820 C.3   212  HIS212      0.1621
     87  C         84.0180  -35.6710   52.7060 C.2   212  HIS212      0.2264
     88  O         84.5730  -36.5450   53.3700 O.2   212  HIS212     -0.2867
     89  CB        84.5950  -34.6100   50.4870 C.3   212  HIS212      0.0745
     90  CG        86.0540  -34.4490   50.8020 C.ar  212  HIS212      0.0817
     91  ND1       86.9200  -33.8060   49.9400 N.ar  212  HIS212     -0.2268
     92  CD2       86.8040  -34.8430   51.8650 C.ar  212  HIS212      0.1154
     93  CE1       88.1350  -33.7990   50.4650 C.ar  212  HIS212      0.1986
     94  NE2       88.0970  -34.4320   51.6240 N.ar  212  HIS212     -0.2212
@<TRIPOS>BOND
     1    66    60    1
     2    66    65    1
     3    63    62    2
     4    60    61    1
     5    70    69    2
     6    62    61    1
     7    62    67   am
     8    65    64    1
     9    69    68    1
    10    61    64    1
    11    67    68    1
    12    91    93   ar
    13    91    90   ar
    14    38    37   ar
    15    29    30    1
    16    29    26    1
    17    28    27    2
    18    93    94   ar
    19    89    90    1
    20    89    86    1
    21    85    86    1
    22    90    92   ar
    23    39    37   ar
    24    73    74    2
    25    73    72    1
    26    37    36    1
    27    86    87    1
    28    27    26    1
    29    27    31   am
    30    26    25    1
    31    72    75    1
    32    72    71    1
    33    83    81   ar
    34    83    84   ar
    35    81    78   ar
    36    75    76    1
    37    94    92   ar
    38    84    82   ar
    39    78    76   ar
    40    78    80   ar
    41    76    77   ar
    42    82    80   ar
    43    80    79   ar
    44    77    79   ar
    45    36    35    1
    46    31    32    1
    47    32    35    1
    48    32    33    1
    49     8     6   am
    50     7     6    2
    51    87    88    2
    52     6     5    1
    53    33    34    2
    54    58    59   ar
    55    58    56   ar
    56    59    57   ar
    57    56    55   ar
    58    49    48   ar
    59    49    47   ar
    60     5     2    1
    61    48    46   ar
    62    57    55   ar
    63    55    54    1
    64     1     2    1
    65    24    22   am
    66     4     3    2
    67    47    45   ar
    68     3     2    1
    69     3     9   am
    70    10     9    1
    71    10    11    1
    72    46    45   ar
    73    54    51    1
    74    45    44    1
    75    22    23    2
    76    22    21    1
    77    13    11   am
    78    13    14    1
    79    11    12    2
    80    51    52    1
    81    51    50    1
    82    16    15    2
    83    44    41    1
    84    21    18    1
    85    14    15    1
    86    52    53    2
    87    15    17   am
    88    17    18    1
    89    41    42    1
    90    41    40    1
    91    18    19    1
    92    42    43    2
    93    19    20    2
