@<TRIPOS>MOLECULE
tmp/2v9xE00.pdb
 179 175 0 0 0
SMALL
GASTEIGER

@<TRIPOS>ATOM
      1  N        -44.8790  -19.0400  106.7270 N.3   107  LEU107     -0.1245
      2  CA       -45.8480  -18.6600  107.7460 C.3   107  LEU107      0.1561
      3  C        -46.3960  -17.2430  107.5170 C.2   107  LEU107      0.2260
      4  O        -45.6340  -16.3180  107.3580 O.2   107  LEU107     -0.2867
      5  CB       -45.2130  -18.7310  109.1070 C.3   107  LEU107      0.0270
      6  CG       -46.0310  -18.1980  110.2900 C.3   107  LEU107      0.0019
      7  CD1      -47.1200  -19.1630  110.6300 C.3   107  LEU107      0.0001
      8  CD2      -45.1130  -18.0110  111.4540 C.3   107  LEU107      0.0001
      9  N        -45.1300  -13.0310  113.3600 N.3   121  HIS121     -0.1241
     10  CA       -43.6920  -13.1600  113.2270 C.3   121  HIS121      0.1621
     11  C        -43.0710  -11.7660  113.0150 C.2   121  HIS121      0.2264
     12  O        -43.7890  -10.7710  112.7270 O.2   121  HIS121     -0.2867
     13  CB       -43.3240  -14.0770  112.0430 C.3   121  HIS121      0.0745
     14  CG       -43.6410  -13.4950  110.7010 C.ar  121  HIS121      0.0817
     15  ND1      -42.8070  -12.6030  110.0570 N.ar  121  HIS121     -0.2268
     16  CD2      -44.6910  -13.7020  109.8650 C.ar  121  HIS121      0.1154
     17  CE1      -43.3420  -12.2700  108.8960 C.ar  121  HIS121      0.1986
     18  NE2      -44.4820  -12.9270  108.7570 N.ar  121  HIS121     -0.2212
     19  N        -39.0120  -13.1840  110.1770 N.3   124  ALA124     -0.1231
     20  CA       -38.4780  -14.5170  109.8890 C.3   124  ALA124      0.1694
     21  C        -39.6780  -15.4430  109.7730 C.2   124  ALA124      0.2592
     22  O        -40.3100  -15.7740  110.7730 O.2   124  ALA124     -0.2718
     23  CB       -37.5490  -14.9730  110.9920 C.3   124  ALA124      0.0304
     24  N        -40.0380  -15.8290  108.5540 N.am  125  HIS125     -0.1962
     25  CA       -41.2430  -16.6490  108.3900 C.3   125  HIS125      0.1787
     26  C        -41.1030  -17.8880  107.4990 C.2   125  HIS125      0.2620
     27  O        -42.1200  -18.4970  107.0930 O.2   125  HIS125     -0.2715
     28  CB       -42.3820  -15.7690  107.8790 C.3   125  HIS125      0.0785
     29  CG       -42.1720  -15.2870  106.4990 C.ar  125  HIS125      0.0821
     30  ND1      -43.1550  -15.3490  105.5460 N.ar  125  HIS125     -0.2267
     31  CD2      -41.0910  -14.7350  105.8920 C.ar  125  HIS125      0.1154
     32  CE1      -42.6930  -14.8690  104.4050 C.ar  125  HIS125      0.1986
     33  NE2      -41.4380  -14.5010  104.5850 N.ar  125  HIS125     -0.2212
     34  N        -39.8640  -18.2590  107.2040 N.am  126  ARG126     -0.1963
     35  CA       -39.5690  -19.3540  106.3010 C.3   126  ARG126      0.1729
     36  C        -39.4040  -20.6560  107.1130 C.2   126  ARG126      0.2616
     37  O        -38.7440  -20.6930  108.1730 O.2   126  ARG126     -0.2715
     38  CB       -38.3170  -19.0410  105.5010 C.3   126  ARG126      0.0348
     39  CG       -37.9870  -20.0660  104.3780 C.3   126  ARG126      0.0492
     40  CD       -36.5350  -19.8320  103.8270 C.3   126  ARG126      0.2205
     41  NE       -35.5730  -20.2520  104.8260 N.pl3 126  ARG126     -0.0865
     42  CZ       -34.8890  -19.4480  105.6440 C.cat 126  ARG126      0.5346
     43  NH1      -34.9340  -18.1070  105.5400 N.pl3 126  ARG126      0.1354
     44  NH2      -34.0790  -19.9980  106.5510 N.pl3 126  ARG126      0.1354
     45  N        -40.0080  -21.7080  106.5940 N.am  127  ILE127     -0.1963
     46  CA       -39.8490  -23.0460  107.1340 C.3   127  ILE127      0.1727
     47  C        -39.0080  -23.8320  106.0870 C.2   127  ILE127      0.2616
     48  O        -39.4020  -24.0360  104.9260 O.2   127  ILE127     -0.2715
     49  CB       -41.1910  -23.7390  107.3400 C.3   127  ILE127      0.0290
     50  CG1      -42.2320  -22.8180  107.9930 C.3   127  ILE127      0.0022
     51  CG2      -41.0080  -25.0480  108.1170 C.3   127  ILE127      0.0023
     52  CD1      -41.7740  -22.2040  109.3260 C.3   127  ILE127      0.0001
     53  N        -37.8260  -24.2340  106.5100 N.am  128  ASP128     -0.1971
     54  CA       -36.8650  -24.7960  105.5490 C.3   128  ASP128      0.1709
     55  C        -37.2250  -26.1870  105.0800 C.2   128  ASP128      0.2293
     56  O        -37.8800  -26.9200  105.7940 O.2   128  ASP128     -0.2864
     57  CB       -35.5120  -24.8410  106.1910 C.3   128  ASP128      0.1436
     58  CG       -34.8920  -23.5160  106.2200 C.2   128  ASP128      0.3671
     59  OD1      -34.8190  -22.9680  105.0980 O.co2 128  ASP128     -0.2456
     60  OD2      -34.5900  -22.9920  107.3310 O.co2 128  ASP128     -0.2456
     61  N        -37.1580  -29.3880  107.4620 N.3   131  TRP131     -0.1241
     62  CA       -37.6390  -28.9860  108.7800 C.3   131  TRP131      0.1605
     63  C        -38.5500  -30.0660  109.3630 C.2   131  TRP131      0.2264
     64  O        -39.3360  -30.6300  108.6580 O.2   131  TRP131     -0.2867
     65  CB       -38.4380  -27.6730  108.6900 C.3   131  TRP131      0.0550
     66  CG       -39.0710  -27.3450  110.0090 C.ar  131  TRP131      0.0003
     67  CD1      -40.3550  -27.5220  110.3490 C.ar  131  TRP131      0.0946
     68  CD2      -38.4130  -26.8550  111.1640 C.ar  131  TRP131      0.0152
     69  NE1      -40.5590  -27.1940  111.6430 N.ar  131  TRP131     -0.2442
     70  CE2      -39.3820  -26.7880  112.1890 C.ar  131  TRP131      0.0810
     71  CE3      -37.0840  -26.4780  111.4440 C.ar  131  TRP131      0.0012
     72  CZ2      -39.0910  -26.3600  113.4560 C.ar  131  TRP131      0.0191
     73  CZ3      -36.7790  -26.0740  112.7070 C.ar  131  TRP131      0.0001
     74  CH2      -37.7820  -26.0010  113.7090 C.ar  131  TRP131      0.0015
     75  N        -43.4790  -24.9380  115.1780 N.3   135  ILE135     -0.1231
     76  CA       -42.9690  -23.6380  114.7930 C.3   135  ILE135      0.1692
     77  C        -43.1310  -22.6520  115.9290 C.2   135  ILE135      0.2592
     78  O        -44.2050  -22.5240  116.4970 O.2   135  ILE135     -0.2718
     79  CB       -43.7010  -23.1990  113.5200 C.3   135  ILE135      0.0266
     80  CG1      -43.2180  -24.0990  112.3630 C.3   135  ILE135      0.0019
     81  CG2      -43.4740  -21.7390  113.1600 C.3   135  ILE135      0.0020
     82  CD1      -44.2350  -24.2400  111.3410 C.3   135  ILE135      0.0001
     83  N        -42.0500  -21.9620  116.2370 N.am  136  VAL136     -0.1966
     84  CA       -42.0270  -20.9220  117.2460 C.3   136  VAL136      0.1727
     85  C        -42.4990  -19.6100  116.6180 C.2   136  VAL136      0.2616
     86  O        -42.0930  -19.2320  115.4780 O.2   136  VAL136     -0.2715
     87  CB       -40.6330  -20.7990  117.9440 C.3   136  VAL136      0.0290
     88  CG1      -40.5110  -19.5210  118.7830 C.3   136  VAL136      0.0023
     89  CG2      -40.3860  -22.0540  118.8180 C.3   136  VAL136      0.0023
     90  N        -43.4260  -18.9690  117.3380 N.am  137  LEU137     -0.1963
     91  CA       -43.9900  -17.7140  116.9160 C.3   137  LEU137      0.1728
     92  C        -43.4110  -16.6130  117.8000 C.2   137  LEU137      0.2616
     93  O        -43.1980  -16.8230  118.9760 O.2   137  LEU137     -0.2715
     94  CB       -45.5000  -17.7670  117.0260 C.3   137  LEU137      0.0311
     95  CG       -46.1640  -18.9720  116.3320 C.3   137  LEU137      0.0022
     96  CD1      -47.5650  -19.1680  116.8280 C.3   137  LEU137      0.0001
     97  CD2      -46.1140  -18.8080  114.8140 C.3   137  LEU137      0.0001
     98  N        -43.1080  -15.4680  117.1960 N.am  138  ASP138     -0.1971
     99  CA       -42.7210  -14.2730  117.9400 C.3   138  ASP138      0.1709
    100  C        -43.8840  -13.3320  117.7260 C.2   138  ASP138      0.2293
    101  O        -44.0420  -12.7840  116.6590 O.2   138  ASP138     -0.2864
    102  CB       -41.3960  -13.6000  117.4890 C.3   138  ASP138      0.1436
    103  CG       -40.5770  -14.4090  116.4780 C.2   138  ASP138      0.3671
    104  OD1      -39.8260  -15.3410  116.8800 O.co2 138  ASP138     -0.2456
    105  OD2      -40.6890  -14.0840  115.2720 O.co2 138  ASP138     -0.2456
    106  N        -32.4530  -28.8730  106.1940 N.3   171  TYR171     -0.1241
    107  CA       -32.2800  -28.4870  107.5900 C.3   171  TYR171      0.1605
    108  C        -31.9180  -29.6750  108.4960 C.2   171  TYR171      0.2264
    109  O        -31.0770  -29.5460  109.3850 O.2   171  TYR171     -0.2867
    110  CB       -33.5780  -27.8580  108.1300 C.3   171  TYR171      0.0534
    111  CG       -33.3430  -26.9720  109.3040 C.ar  171  TYR171     -0.0201
    112  CD1      -32.7720  -25.6940  109.1250 C.ar  171  TYR171     -0.0009
    113  CD2      -33.6320  -27.4010  110.6060 C.ar  171  TYR171     -0.0009
    114  CE1      -32.5130  -24.8710  110.1990 C.ar  171  TYR171      0.0417
    115  CE2      -33.3850  -26.5850  111.6820 C.ar  171  TYR171      0.0417
    116  CZ       -32.8430  -25.2900  111.4730 C.ar  171  TYR171      0.1957
    117  OH       -32.5470  -24.4500  112.5540 O.3   171  TYR171     -0.2866
    118  N        -28.0420  -30.3670  108.1060 N.3   174  ARG174     -0.1245
    119  CA       -27.0500  -29.3150  108.4000 C.3   174  ARG174      0.1563
    120  C        -26.5510  -29.4480  109.8170 C.2   174  ARG174      0.2260
    121  O        -27.3350  -29.3880  110.7560 O.2   174  ARG174     -0.2867
    122  CB       -27.6590  -27.9170  108.2820 C.3   174  ARG174      0.0307
    123  CG       -27.7290  -27.3380  106.9050 C.3   174  ARG174      0.0489
    124  CD       -28.5370  -26.0180  106.9540 C.3   174  ARG174      0.2205
    125  NE       -27.8080  -25.0660  107.7890 N.pl3 174  ARG174     -0.0865
    126  CZ       -28.3150  -24.0370  108.4670 C.cat 174  ARG174      0.5346
    127  NH1      -29.5880  -23.7260  108.4230 N.pl3 174  ARG174      0.1354
    128  NH2      -27.4990  -23.2890  109.1760 N.pl3 174  ARG174      0.1354
    129  N        -24.7290  -27.3700  111.6140 N.3   176  ASP176     -0.1225
    130  CA       -24.8780  -26.1710  112.4220 C.3   176  ASP176      0.1805
    131  C        -26.3170  -25.6050  112.4800 C.2   176  ASP176      0.2598
    132  O        -26.4920  -24.4920  112.9070 O.2   176  ASP176     -0.2718
    133  CB       -23.9130  -25.1020  111.9230 C.3   176  ASP176      0.1424
    134  CG       -24.1800  -24.6970  110.4750 C.2   176  ASP176      0.3668
    135  OD1      -24.8260  -25.5200  109.7550 O.co2 176  ASP176     -0.2456
    136  OD2      -23.7510  -23.5630  110.0840 O.co2 176  ASP176     -0.2456
    137  N        -27.3310  -26.3690  112.0630 N.am  177  ALA177     -0.1966
    138  CA       -28.7270  -25.9660  112.2350 C.3   177  ALA177      0.1728
    139  C        -29.0560  -25.9000  113.7440 C.2   177  ALA177      0.2616
    140  O        -28.7390  -26.8140  114.5060 O.2   177  ALA177     -0.2715
    141  CB       -29.6470  -26.9500  111.5330 C.3   177  ALA177      0.0334
    142  N        -29.7310  -24.8450  114.1720 N.am  178  LYS178     -0.1963
    143  CA       -29.9350  -24.5930  115.6020 C.3   178  LYS178      0.1728
    144  C        -31.1840  -25.1300  116.1910 C.2   178  LYS178      0.2616
    145  O        -31.2480  -25.3110  117.4100 O.2   178  LYS178     -0.2715
    146  CB       -29.9710  -23.0810  115.8620 C.3   178  LYS178      0.0311
    147  CG       -28.7170  -22.3240  115.5770 C.3   178  LYS178      0.0038
    148  CD       -29.0540  -20.8290  115.6580 C.3   178  LYS178      0.0206
    149  CE       -27.8420  -19.9430  115.3820 C.3   178  LYS178      0.1093
    150  NZ       -27.0520  -20.4110  114.2110 N.3   178  LYS178     -0.1314
    151  N        -32.2050  -25.3140  115.3650 N.am  179  TYR179     -0.1974
    152  CA       -33.5520  -25.5420  115.8760 C.3   179  TYR179      0.1639
    153  C        -34.1580  -26.8810  115.4860 C.2   179  TYR179      0.2290
    154  O        -35.3520  -26.9880  115.5120 O.2   179  TYR179     -0.2864
    155  CB       -34.4810  -24.3860  115.4800 C.3   179  TYR179      0.0560
    156  CG       -34.0090  -23.0390  115.9760 C.ar  179  TYR179     -0.0198
    157  CD1      -33.4650  -22.1070  115.1130 C.ar  179  TYR179     -0.0009
    158  CD2      -34.0250  -22.7230  117.3170 C.ar  179  TYR179     -0.0009
    159  CE1      -33.0020  -20.8980  115.5530 C.ar  179  TYR179      0.0417
    160  CE2      -33.5810  -21.4760  117.7810 C.ar  179  TYR179      0.0417
    161  CZ       -33.0560  -20.5730  116.9000 C.ar  179  TYR179      0.1957
    162  OH       -32.5880  -19.3130  117.2940 O.3   179  TYR179     -0.2866
    163  N        -37.5370  -28.8890  117.4520 N.3   182  GLN182     -0.1245
    164  CA       -37.9030  -27.9420  118.4560 C.3   182  GLN182      0.1566
    165  C        -39.3280  -28.3110  118.9020 C.2   182  GLN182      0.2260
    166  O        -40.1670  -28.6900  118.0860 O.2   182  GLN182     -0.2867
    167  CB       -37.7210  -26.5420  117.8220 C.3   182  GLN182      0.0367
    168  CG       -38.6850  -25.4500  118.1110 C.3   182  GLN182      0.0905
    169  CD       -38.4110  -24.2660  117.2070 C.2   182  GLN182      0.2608
    170  OE1      -37.4090  -23.6150  117.3350 O.2   182  GLN182     -0.2717
    171  NE2      -39.2900  -24.0230  116.2530 N.am  182  GLN182     -0.0878
    172  N        -29.0240  -17.7100  119.2940 N.3   190  ILE190     -0.1245
    173  CA       -28.0440  -16.8580  118.6180 C.3   190  ILE190      0.1561
    174  C        -26.6040  -17.0640  119.1570 C.2   190  ILE190      0.2260
    175  O        -25.6470  -16.8590  118.3980 O.2   190  ILE190     -0.2867
    176  CB       -28.4480  -15.3750  118.6620 C.3   190  ILE190      0.0252
    177  CG1      -27.6310  -14.5330  117.6720 C.3   190  ILE190      0.0019
    178  CG2      -28.2920  -14.8080  120.0810 C.3   190  ILE190      0.0019
    179  CD1      -27.9580  -14.7990  116.2230 C.3   190  ILE190      0.0001
@<TRIPOS>BOND
     1    40    39    1
     2    40    41    1
     3    39    38    1
     4    32    33   ar
     5    32    30   ar
     6    33    31   ar
     7    41    42    2
     8    48    47    2
     9    55    54    1
    10    55    56    2
    11    59    58   ar
    12    38    35    1
    13    43    42    1
    14    30    29   ar
    15    54    57    1
    16    54    53    1
    17    42    44    1
    18    31    29   ar
    19    47    53   am
    20    47    46    1
    21    57    58    1
    22   106   107    1
    23    58    60   ar
    24    35    36    1
    25    35    34    1
    26    29    28    1
    27    45    36   am
    28    45    46    1
    29     1     2    1
    30   123   124    1
    31   123   122    1
    32   124   125    1
    33    27    26    2
    34    36    37    2
    35    46    49    1
    36    34    26   am
    37    49    50    1
    38    49    51    1
    39     4     3    2
    40    61    62    1
    41    26    25    1
    42     3     2    1
    43   107   110    1
    44   107   108    1
    45     2     5    1
    46   125   126    2
    47    28    25    1
    48    50    52    1
    49   118   119    1
    50   110   111    1
    51   122   119    1
    52    25    24    1
    53   119   120    1
    54   127   126    1
    55   126   128    1
    56   108   109    2
    57    24    21   am
    58    64    63    2
    59    65    62    1
    60    65    66    1
    61    18    17   ar
    62    18    16   ar
    63    62    63    1
    64    17    15   ar
    65     5     6    1
    66   112   111   ar
    67   112   114   ar
    68   111   113   ar
    69   135   134   ar
    70    21    20    1
    71    21    22    2
    72   120   121    2
    73    16    14   ar
    74    20    19    1
    75    20    23    1
    76    66    67   ar
    77    66    68   ar
    78    15    14   ar
    79   136   134   ar
    80   114   116   ar
    81     6     7    1
    82     6     8    1
    83    67    69   ar
    84   134   133    1
    85   113   115   ar
    86    14    13    1
    87    68    71   ar
    88    68    70   ar
    89    82    80    1
    90    71    73   ar
    91   116   115   ar
    92   116   117    1
    93   141   138    1
    94   129   130    1
    95    69    70   ar
    96   133   130    1
    97    13    10    1
    98   137   138    1
    99   137   131   am
   100    70    72   ar
   101   138   139    1
   102    80    79    1
   103   130   131    1
   104   131   132    2
   105    73    74   ar
   106    12    11    2
   107    11    10    1
   108    81    79    1
   109    10     9    1
   110    72    74   ar
   111    79    76    1
   112   139   142   am
   113   139   140    2
   114   142   143    1
   115   150   149    1
   116    76    75    1
   117    76    77    1
   118    97    95    1
   119   157   159   ar
   120   157   156   ar
   121   105   103   ar
   122   151   152    1
   123   151   144   am
   124   149   148    1
   125    86    85    2
   126   155   152    1
   127   155   156    1
   128   153   154    2
   129   153   152    1
   130   159   161   ar
   131   147   148    1
   132   147   146    1
   133   143   146    1
   134   143   144    1
   135    77    83   am
   136    77    78    2
   137   156   158   ar
   138   144   145    2
   139   179   177    1
   140    83    84    1
   141   171   169   am
   142    95    96    1
   143    95    94    1
   144   103   104   ar
   145   103   102    1
   146    85    84    1
   147    85    90   am
   148   101   100    2
   149   161   162    1
   150   161   160   ar
   151    91    94    1
   152    91    90    1
   153    91    92    1
   154    98    92   am
   155    98    99    1
   156   169   170    2
   157   169   168    1
   158    84    87    1
   159   158   160   ar
   160   163   164    1
   161   102    99    1
   162   177   176    1
   163   100    99    1
   164    92    93    2
   165   167   168    1
   166   167   164    1
   167    87    88    1
   168    87    89    1
   169   166   165    2
   170   175   174    2
   171   164   165    1
   172   173   176    1
   173   173   174    1
   174   173   172    1
   175   176   178    1
