@<TRIPOS>MOLECULE
tmp/2va5A00.pdb
 137 131 0 0 0
SMALL
GASTEIGER

@<TRIPOS>ATOM
      1  N         76.9410   42.8470   -0.6840 N.3    13  GLY13      -0.1210
      2  CA        76.4300   42.6620    0.6720 C.3    13  GLY13       0.1956
      3  C         76.5330   43.8720    1.5800 C.2    13  GLY13       0.2612
      4  O         76.0020   43.8580    2.7040 O.2    13  GLY13      -0.2717
      5  N         77.2110   44.9160    1.0860 N.am   14  GLN14      -0.1965
      6  CA        77.3990   46.1850    1.8060 C.3    14  GLN14       0.1733
      7  C         76.3740   47.2770    1.4230 C.2    14  GLN14       0.2616
      8  O         76.3410   48.3350    2.0530 O.2    14  GLN14      -0.2715
      9  CB        78.8200   46.7190    1.5630 C.3    14  GLN14       0.0408
     10  CG        79.9300   45.9020    2.2240 C.3    14  GLN14       0.0908
     11  CD        81.2900   46.5860    2.1500 C.2    14  GLN14       0.2608
     12  OE1       82.2370   46.1780    2.8340 O.2    14  GLN14      -0.2717
     13  NE2       81.3950   47.6340    1.3170 N.am   14  GLN14      -0.0878
     14  N         75.5610   47.0380    0.3890 N.am   15  GLY15      -0.1955
     15  CA        74.5310   47.9970   -0.0300 C.3    15  GLY15       0.1869
     16  C         74.8940   48.9530   -1.1600 C.2    15  GLY15       0.2309
     17  O         76.0730   49.0880   -1.5380 O.2    15  GLY15      -0.2863
     18  N         73.6440   55.8310    1.4460 N.3    32  LEU32      -0.1245
     19  CA        73.1680   54.4930    1.1850 C.3    32  LEU32       0.1561
     20  C         71.6810   54.5140    0.9530 C.2    32  LEU32       0.2260
     21  O         70.9460   54.9580    1.8270 O.2    32  LEU32      -0.2867
     22  CB        73.5080   53.5970    2.3720 C.3    32  LEU32       0.0270
     23  CG        73.0010   52.1700    2.2360 C.3    32  LEU32       0.0019
     24  CD1       74.1650   51.2320    2.1950 C.3    32  LEU32       0.0001
     25  CD2       72.0210   51.8160    3.3560 C.3    32  LEU32       0.0001
     26  N         68.0690   53.5020    0.9380 N.3    34  ASP34      -0.1239
     27  CA        67.3950   52.5700    1.8200 C.3    34  ASP34       0.1674
     28  C         65.8990   52.7410    1.8840 C.2    34  ASP34       0.2266
     29  O         65.4080   53.6560    2.5200 O.2    34  ASP34      -0.2867
     30  CB        67.9500   52.7230    3.2240 C.3    34  ASP34       0.1410
     31  CG        67.2610   51.8280    4.2070 C.2    34  ASP34       0.3668
     32  OD1       66.5520   50.9220    3.7370 O.co2  34  ASP34      -0.2456
     33  OD2       67.4270   52.0230    5.4300 O.co2  34  ASP34      -0.2456
     34  N         63.8530   50.9550    3.5360 N.3    36  GLY36      -0.1210
     35  CA        63.3550   50.3630    4.7800 C.3    36  GLY36       0.1956
     36  C         63.3370   51.2840    5.9990 C.2    36  GLY36       0.2612
     37  O         62.9080   50.8810    7.0820 O.2    36  GLY36      -0.2717
     38  N         63.8000   52.5140    5.8400 N.am   37  SER37      -0.1952
     39  CA        63.7610   53.4970    6.9170 C.3    37  SER37       0.1924
     40  C         63.5150   54.8640    6.3280 C.2    37  SER37       0.2314
     41  O         63.5440   55.0200    5.1060 O.2    37  SER37      -0.2863
     42  CB        65.0820   53.4880    7.6770 C.3    37  SER37       0.2116
     43  OG        66.1650   53.8430    6.8330 O.3    37  SER37      -0.2180
     44  N         68.9290   49.1150   16.8850 N.3    73  TYR73      -0.1241
     45  CA        68.6590   47.9730   16.0100 C.3    73  TYR73       0.1605
     46  C         68.7330   46.6750   16.8530 C.2    73  TYR73       0.2264
     47  O         68.3180   46.6660   18.0160 O.2    73  TYR73      -0.2867
     48  CB        69.6340   47.9800   14.8070 C.3    73  TYR73       0.0534
     49  CG        69.4210   49.1220   13.8080 C.ar   73  TYR73      -0.0201
     50  CD1       70.4550   50.0170   13.5040 C.ar   73  TYR73      -0.0009
     51  CD2       68.1820   49.3060   13.1640 C.ar   73  TYR73      -0.0009
     52  CE1       70.2560   51.0700   12.5810 C.ar   73  TYR73       0.0417
     53  CE2       67.9790   50.3520   12.2470 C.ar   73  TYR73       0.0417
     54  CZ        69.0190   51.2310   11.9570 C.ar   73  TYR73       0.1957
     55  OH        68.8280   52.2640   11.0560 O.3    73  TYR73      -0.2866
     56  N         77.8360   49.2630   15.2830 N.3   109  LYS109     -0.1231
     57  CA        77.6100   48.2650   14.2200 C.3   109  LYS109      0.1693
     58  C         76.7370   48.7990   13.0560 C.2   109  LYS109      0.2592
     59  O         75.9740   48.0730   12.4250 O.2   109  LYS109     -0.2718
     60  CB        77.1010   46.9440   14.8480 C.3   109  LYS109      0.0285
     61  CG        78.2120   46.2610   15.6790 C.3   109  LYS109      0.0035
     62  CD        77.7340   45.2690   16.7560 C.3   109  LYS109      0.0206
     63  CE        78.9600   44.7650   17.5920 C.3   109  LYS109      0.1093
     64  NZ        78.8390   43.3940   18.1980 N.3   109  LYS109     -0.1314
     65  N         76.8990   50.0840   12.7630 N.am  110  PHE110     -0.1976
     66  CA        76.1080   50.7620   11.7460 C.3   110  PHE110      0.1639
     67  C         76.9620   50.9100   10.4970 C.2   110  PHE110      0.2290
     68  O         76.6740   50.2940    9.4680 O.2   110  PHE110     -0.2864
     69  CB        75.6430   52.1250   12.2640 C.3   110  PHE110      0.0560
     70  CG        74.9040   52.9310   11.2510 C.ar  110  PHE110     -0.0200
     71  CD1       73.6630   52.5210   10.8040 C.ar  110  PHE110     -0.0042
     72  CD2       75.4400   54.1070   10.7520 C.ar  110  PHE110     -0.0042
     73  CE1       72.9540   53.2670    9.8750 C.ar  110  PHE110     -0.0003
     74  CE2       74.7420   54.8650    9.8220 C.ar  110  PHE110     -0.0003
     75  CZ        73.4920   54.4410    9.3780 C.ar  110  PHE110     -0.0000
     76  N         80.1460   50.2600    8.0760 N.3   112  ILE112     -0.1245
     77  CA        80.7980   49.0050    7.7200 C.3   112  ILE112      0.1561
     78  C         82.2410   49.2940    7.3910 C.2   112  ILE112      0.2260
     79  O         82.5110   50.0910    6.4990 O.2   112  ILE112     -0.2867
     80  CB        80.1370   48.3480    6.5020 C.3   112  ILE112      0.0252
     81  CG1       78.7350   47.8580    6.8610 C.3   112  ILE112      0.0019
     82  CG2       80.9740   47.2100    6.0170 C.3   112  ILE112      0.0019
     83  CD1       78.0440   47.1350    5.7100 C.3   112  ILE112      0.0001
     84  N         80.4840   54.3080    1.9240 N.3   117  TRP117     -0.1241
     85  CA        79.3710   55.1860    2.2330 C.3   117  TRP117      0.1605
     86  C         79.4430   55.7010    3.6750 C.2   117  TRP117      0.2264
     87  O         79.8800   55.0010    4.5980 O.2   117  TRP117     -0.2867
     88  CB        78.0030   54.5350    1.9350 C.3   117  TRP117      0.0550
     89  CG        77.6730   53.2360    2.6230 C.ar  117  TRP117      0.0003
     90  CD1       77.7610   52.0000    2.0800 C.ar  117  TRP117      0.0946
     91  CD2       77.1390   53.0510    3.9480 C.ar  117  TRP117      0.0152
     92  NE1       77.3420   51.0570    2.9780 N.ar  117  TRP117     -0.2442
     93  CE2       76.9550   51.6770    4.1330 C.ar  117  TRP117      0.0810
     94  CE3       76.8250   53.9150    5.0010 C.ar  117  TRP117      0.0012
     95  CZ2       76.4770   51.1350    5.3270 C.ar  117  TRP117      0.0191
     96  CZ3       76.3380   53.3740    6.1920 C.ar  117  TRP117      0.0001
     97  CH2       76.1720   52.0010    6.3410 C.ar  117  TRP117      0.0015
     98  N         73.0420   57.1840    5.3800 N.3   120  ILE120     -0.1245
     99  CA        71.8170   56.5500    4.9180 C.3   120  ILE120      0.1561
    100  C         70.8510   57.5940    4.2990 C.2   120  ILE120      0.2260
    101  O         70.8460   58.7790    4.6730 O.2   120  ILE120     -0.2867
    102  CB        71.1460   55.8000    6.0910 C.3   120  ILE120      0.0252
    103  CG1       69.9880   54.9400    5.6140 C.3   120  ILE120      0.0019
    104  CG2       70.6310   56.7710    7.1360 C.3   120  ILE120      0.0019
    105  CD1       69.6520   53.8350    6.6020 C.3   120  ILE120      0.0001
    106  N         62.6980   46.3090    0.4600 N.3   220  ASP220     -0.1225
    107  CA        63.8220   46.9480    1.1290 C.3   220  ASP220      0.1805
    108  C         65.1270   46.8940    0.3470 C.2   220  ASP220      0.2598
    109  O         65.7890   45.8580    0.2810 O.2   220  ASP220     -0.2718
    110  CB        64.0330   46.2820    2.4740 C.3   220  ASP220      0.1424
    111  CG        64.7500   47.1520    3.4330 C.2   220  ASP220      0.3668
    112  OD1       65.0170   48.3300    3.1030 O.co2 220  ASP220     -0.2456
    113  OD2       65.0330   46.6450    4.5270 O.co2 220  ASP220     -0.2456
    114  N         65.5130   48.0320   -0.2130 N.am  221  SER221     -0.1938
    115  CA        66.8180   48.1550   -0.8160 C.3   221  SER221      0.2055
    116  C         67.9170   48.0380    0.2400 C.2   221  SER221      0.2644
    117  O         69.0700   47.8460   -0.0950 O.2   221  SER221     -0.2714
    118  CB        66.9370   49.4830   -1.5670 C.3   221  SER221      0.2130
    119  OG        66.8690   50.6000   -0.6910 O.3   221  SER221     -0.2179
    120  N         67.5560   48.1640    1.5080 N.am  222  GLY222     -0.1939
    121  CA        68.5290   48.1840    2.5730 C.3   222  GLY222      0.2014
    122  C         68.8210   46.8220    3.1620 C.2   222  GLY222      0.2640
    123  O         69.8010   46.6820    3.9110 O.2   222  GLY222     -0.2714
    124  N         67.9530   45.8370    2.8900 N.am  223  THR223     -0.1936
    125  CA        68.2160   44.4440    3.2910 C.3   223  THR223      0.2028
    126  C         68.8320   43.7270    2.1330 C.2   223  THR223      0.2642
    127  O         68.5640   44.0410    0.9910 O.2   223  THR223     -0.2714
    128  CB        66.9570   43.6900    3.7580 C.3   223  THR223      0.1808
    129  OG1       66.5090   44.2490    4.9900 O.3   223  THR223     -0.2208
    130  CG2       67.2430   42.2150    4.0060 C.3   223  THR223      0.0379
    131  N         69.6910   42.7770    2.4500 N.am  224  THR224     -0.1950
    132  CA        70.4180   42.0060    1.4540 C.3   224  THR224      0.1897
    133  C         69.5790   40.8040    1.0450 C.2   224  THR224      0.2313
    134  O         69.3900   40.5380   -0.1480 O.2   224  THR224     -0.2863
    135  CB        71.8140   41.5390    2.0140 C.3   224  THR224      0.1794
    136  OG1       72.7400   42.6360    1.9860 O.3   224  THR224     -0.2208
    137  CG2       72.3890   40.3920    1.1980 C.3   224  THR224      0.0378
@<TRIPOS>BOND
     1   118   115    1
     2   118   119    1
     3    17    16    2
     4    16    15    1
     5   115   114    1
     6   115   116    1
     7     1     2    1
     8   114   108   am
     9   134   133    2
    10   117   116    2
    11    15    14    1
    12   116   120   am
    13   109   108    2
    14   108   107    1
    15    14     7   am
    16   106   107    1
    17     2     3    1
    18    26    27    1
    19    20    19    1
    20    20    21    2
    21   127   126    2
    22   133   132    1
    23     5     3   am
    24     5     6    1
    25   107   110    1
    26    19    18    1
    27    19    22    1
    28   137   135    1
    29    13    11   am
    30     7     6    1
    31     7     8    2
    32   132   135    1
    33   132   131    1
    34   120   121    1
    35     9     6    1
    36     9    10    1
    37     3     4    2
    38    27    28    1
    39    27    30    1
    40    28    29    2
    41    84    85    1
    42    88    85    1
    43    88    89    1
    44   136   135    1
    45    90    89   ar
    46    90    92   ar
    47   126   131   am
    48   126   125    1
    49    11    10    1
    50    11    12    2
    51    24    23    1
    52    85    86    1
    53    23    22    1
    54    23    25    1
    55   110   111    1
    56   121   122    1
    57    89    91   ar
    58   124   122   am
    59   124   125    1
    60    92    93   ar
    61   112   111   ar
    62   122   123    2
    63    30    31    1
    64   125   128    1
    65   111   113   ar
    66    34    35    1
    67    86    87    2
    68    32    31   ar
    69   128   130    1
    70   128   129    1
    71    91    93   ar
    72    91    94   ar
    73    93    95   ar
    74    31    33   ar
    75   100   101    2
    76   100    99    1
    77    35    36    1
    78    99    98    1
    79    99   102    1
    80    94    96   ar
    81    41    40    2
    82    95    97   ar
    83   103   102    1
    84   103   105    1
    85    83    81    1
    86    38    36   am
    87    38    39    1
    88    36    37    2
    89    82    80    1
    90   102   104    1
    91    96    97   ar
    92    40    39    1
    93    79    78    2
    94    80    81    1
    95    80    77    1
    96    43    42    1
    97    39    42    1
    98    78    77    1
    99    77    76    1
   100    75    74   ar
   101    75    73   ar
   102    68    67    2
   103    74    72   ar
   104    73    71   ar
   105    67    66    1
   106    72    70   ar
   107    71    70   ar
   108    55    54    1
   109    70    69    1
   110    66    69    1
   111    66    65    1
   112    54    53   ar
   113    54    52   ar
   114    53    51   ar
   115    59    58    2
   116    52    50   ar
   117    65    58   am
   118    58    57    1
   119    51    49   ar
   120    50    49   ar
   121    49    48    1
   122    57    60    1
   123    57    56    1
   124    48    45    1
   125    60    61    1
   126    61    62    1
   127    45    46    1
   128    45    44    1
   129    62    63    1
   130    46    47    2
   131    63    64    1
