@<TRIPOS>MOLECULE
tmp/2va6A00.pdb
 171 164 0 0 0
SMALL
GASTEIGER

@<TRIPOS>ATOM
      1  N         73.9410   44.4830   -2.9460 N.3    12  SER12      -0.1202
      2  CA        72.8700   44.0890   -2.0420 C.3    12  SER12       0.2020
      3  C         73.4180   43.6300   -0.6910 C.2    12  SER12       0.2619
      4  O         72.7070   43.6850    0.3280 O.2    12  SER12      -0.2717
      5  CB        72.0080   42.9650   -2.6740 C.3    12  SER12       0.2103
      6  OG        72.6540   41.6880   -2.6950 O.3    12  SER12      -0.2182
      7  N         74.6630   43.1340   -0.6930 N.am   13  GLY13      -0.1942
      8  CA        75.3500   42.7160    0.5290 C.3    13  GLY13       0.2014
      9  C         75.6390   43.8910    1.4430 C.2    13  GLY13       0.2639
     10  O         75.4370   43.7990    2.6510 O.2    13  GLY13      -0.2714
     11  N         76.0820   45.0000    0.8480 N.am   14  GLN14      -0.1963
     12  CA        76.4500   46.2220    1.5760 C.3    14  GLN14       0.1733
     13  C         75.5210   47.4550    1.3300 C.2    14  GLN14       0.2617
     14  O         75.8120   48.5470    1.8000 O.2    14  GLN14      -0.2715
     15  CB        77.8960   46.6210    1.2010 C.3    14  GLN14       0.0408
     16  CG        79.0170   46.0590    2.0750 C.3    14  GLN14       0.0908
     17  CD        80.2890   46.9170    2.0200 C.2    14  GLN14       0.2608
     18  OE1       81.3870   46.4640    2.3500 O.2    14  GLN14      -0.2717
     19  NE2       80.1370   48.1650    1.6010 N.am   14  GLN14      -0.0878
     20  N         74.4410   47.3110    0.5680 N.am   15  GLY15      -0.1940
     21  CA        73.5170   48.4350    0.3400 C.3    15  GLY15       0.2014
     22  C         73.8200   49.2240   -0.9060 C.2    15  GLY15       0.2638
     23  O         74.9170   49.1120   -1.4560 O.2    15  GLY15      -0.2714
     24  N         72.8410   50.0110   -1.3630 N.am   16  TYR16      -0.1973
     25  CA        73.0420   50.9290   -2.5040 C.3    16  TYR16       0.1639
     26  C         72.9550   52.3530   -1.9820 C.2    16  TYR16       0.2290
     27  O         72.1270   52.6740   -1.1190 O.2    16  TYR16      -0.2864
     28  CB        71.9920   50.7060   -3.6090 C.3    16  TYR16       0.0560
     29  CG        72.0320   49.3300   -4.2900 C.ar   16  TYR16      -0.0198
     30  CD1       71.5130   48.2050   -3.6620 C.ar   16  TYR16      -0.0009
     31  CD2       72.5970   49.1660   -5.5530 C.ar   16  TYR16      -0.0009
     32  CE1       71.5560   46.9460   -4.2570 C.ar   16  TYR16       0.0417
     33  CE2       72.6490   47.9120   -6.1570 C.ar   16  TYR16       0.0417
     34  CZ        72.1170   46.8060   -5.4980 C.ar   16  TYR16       0.1957
     35  OH        72.1540   45.5600   -6.0810 O.3    16  TYR16      -0.2866
     36  N         72.9860   55.7250    1.9970 N.3    32  LEU32      -0.1245
     37  CA        72.2380   54.4990    1.7150 C.3    32  LEU32       0.1561
     38  C         70.7780   54.8000    1.4340 C.2    32  LEU32       0.2260
     39  O         70.1220   55.4960    2.2160 O.2    32  LEU32      -0.2867
     40  CB        72.2950   53.5380    2.9110 C.3    32  LEU32       0.0270
     41  CG        71.5940   52.1650    2.8090 C.3    32  LEU32       0.0019
     42  CD1       72.5910   51.1320    2.3430 C.3    32  LEU32       0.0001
     43  CD2       70.9700   51.6630    4.1380 C.3    32  LEU32       0.0001
     44  N         67.3240   53.4940    1.5640 N.3    34  ASP34      -0.1239
     45  CA        66.7200   52.5440    2.4540 C.3    34  ASP34       0.1674
     46  C         65.2330   52.7960    2.5090 C.2    34  ASP34       0.2266
     47  O         64.7930   53.7510    3.1620 O.2    34  ASP34      -0.2867
     48  CB        67.3340   52.7330    3.8510 C.3    34  ASP34       0.1410
     49  CG        66.7230   51.8160    4.8930 C.2    34  ASP34       0.3668
     50  OD1       66.0510   50.8250    4.4940 O.co2  34  ASP34      -0.2456
     51  OD2       66.9000   52.0910    6.1130 O.co2  34  ASP34      -0.2456
     52  N         63.2130   50.8920    3.9860 N.3    36  GLY36      -0.1210
     53  CA        62.7640   50.2560    5.2360 C.3    36  GLY36       0.1956
     54  C         62.8370   51.0950    6.5130 C.2    36  GLY36       0.2612
     55  O         62.6230   50.5730    7.5970 O.2    36  GLY36      -0.2717
     56  N         63.1300   52.3820    6.3780 N.am   37  SER37      -0.1952
     57  CA        63.1710   53.3050    7.4970 C.3    37  SER37       0.1924
     58  C         62.8660   54.7230    7.0120 C.2    37  SER37       0.2314
     59  O         62.7670   54.9640    5.8180 O.2    37  SER37      -0.2863
     60  CB        64.5370   53.2510    8.1720 C.3    37  SER37       0.2116
     61  OG        65.5430   53.7870    7.3420 O.3    37  SER37      -0.2180
     62  N         68.7380   48.6340   17.2450 N.3    73  TYR73      -0.1241
     63  CA        68.4270   47.5210   16.3300 C.3    73  TYR73       0.1605
     64  C         68.7410   46.1870   17.0250 C.2    73  TYR73       0.2264
     65  O         69.1260   46.1740   18.2130 O.2    73  TYR73      -0.2867
     66  CB        69.3220   47.5820   15.0840 C.3    73  TYR73       0.0534
     67  CG        69.1920   48.8400   14.2970 C.ar   73  TYR73      -0.0201
     68  CD1       70.2360   49.7690   14.2430 C.ar   73  TYR73      -0.0009
     69  CD2       68.0270   49.1090   13.6100 C.ar   73  TYR73      -0.0009
     70  CE1       70.1150   50.9170   13.5170 C.ar   73  TYR73       0.0417
     71  CE2       67.8830   50.2680   12.8860 C.ar   73  TYR73       0.0417
     72  CZ        68.9230   51.1700   12.8350 C.ar   73  TYR73       0.1957
     73  OH        68.7390   52.3190   12.1080 O.3    73  TYR73      -0.2866
     74  N         77.7630   48.7350   15.7360 N.3   109  LYS109     -0.1231
     75  CA        77.4580   47.7890   14.6420 C.3   109  LYS109      0.1693
     76  C         76.5670   48.3660   13.5330 C.2   109  LYS109      0.2592
     77  O         75.9000   47.6370   12.8130 O.2   109  LYS109     -0.2718
     78  CB        76.9390   46.4400   15.2090 C.3   109  LYS109      0.0285
     79  CG        78.0700   45.6730   15.9000 C.3   109  LYS109      0.0035
     80  CD        77.6920   44.4340   16.6990 C.3   109  LYS109      0.0206
     81  CE        78.9700   43.9040   17.4240 C.3   109  LYS109      0.1093
     82  NZ        79.0190   42.4130   17.6770 N.3   109  LYS109     -0.1314
     83  N         76.6380   49.6770   13.3460 N.am  110  PHE110     -0.1976
     84  CA        75.8510   50.3530   12.3360 C.3   110  PHE110      0.1639
     85  C         76.6470   50.4840   11.0320 C.2   110  PHE110      0.2290
     86  O         76.2670   49.9170   10.0200 O.2   110  PHE110     -0.2864
     87  CB        75.4330   51.7130   12.8600 C.3   110  PHE110      0.0560
     88  CG        74.5910   52.5050   11.9050 C.ar  110  PHE110     -0.0200
     89  CD1       73.2670   52.1420   11.6580 C.ar  110  PHE110     -0.0042
     90  CD2       75.1040   53.6340   11.2820 C.ar  110  PHE110     -0.0042
     91  CE1       72.4750   52.8750   10.7860 C.ar  110  PHE110     -0.0003
     92  CE2       74.3030   54.3910   10.4040 C.ar  110  PHE110     -0.0003
     93  CZ        72.9870   54.0010   10.1620 C.ar  110  PHE110     -0.0000
     94  N         79.5550   49.8660    8.2800 N.3   112  ILE112     -0.1245
     95  CA        80.3310   48.7080    7.8480 C.3   112  ILE112      0.1561
     96  C         81.7740   49.1390    7.5680 C.2   112  ILE112      0.2260
     97  O         82.0220   50.0900    6.8450 O.2   112  ILE112     -0.2867
     98  CB        79.7160   48.0360    6.5850 C.3   112  ILE112      0.0252
     99  CG1       78.3200   47.4810    6.8800 C.3   112  ILE112      0.0019
    100  CG2       80.6120   46.9100    6.0940 C.3   112  ILE112      0.0019
    101  CD1       77.4350   47.3610    5.6320 C.3   112  ILE112      0.0001
    102  N         79.7040   54.2080    2.2630 N.3   117  TRP117     -0.1241
    103  CA        78.6500   55.1570    2.6210 C.3   117  TRP117      0.1605
    104  C         78.6960   55.5410    4.1050 C.2   117  TRP117      0.2264
    105  O         79.2840   54.8410    4.9200 O.2   117  TRP117     -0.2867
    106  CB        77.2750   54.6100    2.2670 C.3   117  TRP117      0.0550
    107  CG        76.9900   53.2880    2.8630 C.ar  117  TRP117      0.0003
    108  CD1       77.2120   52.0770    2.2900 C.ar  117  TRP117      0.0946
    109  CD2       76.4240   53.0290    4.1550 C.ar  117  TRP117      0.0152
    110  NE1       76.8260   51.0740    3.1470 N.ar  117  TRP117     -0.2442
    111  CE2       76.3250   51.6330    4.2920 C.ar  117  TRP117      0.0810
    112  CE3       75.9980   53.8410    5.2070 C.ar  117  TRP117      0.0012
    113  CZ2       75.8150   51.0330    5.4330 C.ar  117  TRP117      0.0191
    114  CZ3       75.5010   53.2470    6.3450 C.ar  117  TRP117      0.0001
    115  CH2       75.4140   51.8560    6.4540 C.ar  117  TRP117      0.0015
    116  N         72.1910   57.1530    6.1210 N.3   120  ILE120     -0.1245
    117  CA        71.0730   56.4750    5.5210 C.3   120  ILE120      0.1561
    118  C         69.9320   57.4690    5.1680 C.2   120  ILE120      0.2260
    119  O         69.7180   58.4830    5.8550 O.2   120  ILE120     -0.2867
    120  CB        70.6230   55.3080    6.3920 C.3   120  ILE120      0.0252
    121  CG1       69.8310   55.7630    7.6060 C.3   120  ILE120      0.0019
    122  CG2       71.8520   54.5090    6.8960 C.3   120  ILE120      0.0019
    123  CD1       68.9070   54.6770    8.0830 C.3   120  ILE120      0.0001
    124  N         61.9210   46.4610    1.0100 N.3   219  ASP219     -0.1225
    125  CA        63.0360   47.0840    1.7170 C.3   219  ASP219      0.1805
    126  C         64.3290   46.9960    0.9760 C.2   219  ASP219      0.2598
    127  O         64.9840   45.9660    1.0040 O.2   219  ASP219     -0.2718
    128  CB        63.2140   46.4460    3.0900 C.3   219  ASP219      0.1424
    129  CG        64.0360   47.3010    4.0190 C.2   219  ASP219      0.3668
    130  OD1       64.7050   48.2160    3.5060 O.co2 219  ASP219     -0.2456
    131  OD2       64.0000   47.0620    5.2590 O.co2 219  ASP219     -0.2456
    132  N         64.7180   48.1010    0.3370 N.am  220  SER220     -0.1938
    133  CA        66.0040   48.1710   -0.3410 C.3   220  SER220      0.2055
    134  C         67.1770   48.1150    0.6500 C.2   220  SER220      0.2644
    135  O         68.3290   47.9310    0.2410 O.2   220  SER220     -0.2714
    136  CB        66.0910   49.4470   -1.1570 C.3   220  SER220      0.2130
    137  OG        66.0410   50.5810   -0.3240 O.3   220  SER220     -0.2179
    138  N         66.8890   48.2830    1.9440 N.am  221  GLY221     -0.1939
    139  CA        67.9180   48.1960    2.9690 C.3   221  GLY221      0.2014
    140  C         68.0680   46.8530    3.6570 C.2   221  GLY221      0.2640
    141  O         68.8340   46.7330    4.6320 O.2   221  GLY221     -0.2714
    142  N         67.3220   45.8520    3.1900 N.am  222  THR222     -0.1936
    143  CA        67.4610   44.4720    3.6790 C.3   222  THR222      0.2028
    144  C         67.9760   43.6910    2.5060 C.2   222  THR222      0.2642
    145  O         67.4800   43.8670    1.3950 O.2   222  THR222     -0.2714
    146  CB        66.1170   43.9020    4.1170 C.3   222  THR222      0.1808
    147  OG1       65.5410   44.7470    5.1240 O.3   222  THR222     -0.2208
    148  CG2       66.2450   42.5230    4.6600 C.3   222  THR222      0.0379
    149  N         68.9800   42.8500    2.7380 N.am  223  THR223     -0.1950
    150  CA        69.6330   42.0810    1.6650 C.3   223  THR223      0.1897
    151  C         68.7910   40.9000    1.1420 C.2   223  THR223      0.2313
    152  O         68.6470   40.7110   -0.0560 O.2   223  THR223     -0.2863
    153  CB        70.9900   41.5180    2.1550 C.3   223  THR223      0.1794
    154  OG1       71.8940   42.6020    2.4160 O.3   223  THR223     -0.2208
    155  CG2       71.6060   40.5900    1.1220 C.3   223  THR223      0.0378
    156  N         63.2410   37.7670    2.8960 N.3   226  ARG226     -0.1245
    157  CA        63.0900   37.1850    4.2040 C.3   226  ARG226      0.1563
    158  C         61.6500   36.7790    4.4890 C.2   226  ARG226      0.2260
    159  O         60.7500   37.6050    4.4250 O.2   226  ARG226     -0.2867
    160  CB        63.6090   38.1590    5.2540 C.3   226  ARG226      0.0307
    161  CG        65.1280   38.3950    5.1190 C.3   226  ARG226      0.0489
    162  CD        65.7850   39.1460    6.3060 C.3   226  ARG226      0.2205
    163  NE        65.2190   38.7580    7.6030 N.pl3 226  ARG226     -0.0865
    164  CZ        64.6050   39.5790    8.4530 C.cat 226  ARG226      0.5346
    165  NH1       64.4990   40.8730    8.1950 N.pl3 226  ARG226      0.1354
    166  NH2       64.1080   39.1090    9.5930 N.pl3 226  ARG226      0.1354
    167  N         66.8120   43.4150   -1.3470 N.3   326  ALA326     -0.1245
    168  CA        67.5040   43.8100   -2.5510 C.3   326  ALA326      0.1562
    169  C         67.7230   42.6050   -3.4470 C.2   326  ALA326      0.2260
    170  O         67.9820   42.7360   -4.6630 O.2   326  ALA326     -0.2867
    171  CB        68.8290   44.4980   -2.1950 C.3   326  ALA326      0.0290
@<TRIPOS>BOND
     1    33    31   ar
     2    33    34   ar
     3    35    34    1
     4    31    29   ar
     5    34    32   ar
     6   170   169    2
     7    29    30   ar
     8    29    28    1
     9    32    30   ar
    10    28    25    1
    11   169   168    1
    12     1     2    1
    13     6     5    1
    14     5     2    1
    15   168   171    1
    16   168   167    1
    17    25    26    1
    18    25    24    1
    19     2     3    1
    20    26    27    2
    21    23    22    2
    22    24    22   am
    23   136   133    1
    24   136   137    1
    25    22    21    1
    26     7     3   am
    27     7     8    1
    28     3     4    2
    29   133   132    1
    30   133   134    1
    31   152   151    2
    32   135   134    2
    33   132   126   am
    34    21    20    1
    35     8     9    1
    36    20    13   am
    37   134   138   am
    38    11     9   am
    39    11    12    1
    40   126   127    2
    41   126   125    1
    42   124   125    1
    43   155   153    1
    44   151   150    1
    45    15    12    1
    46    15    16    1
    47    13    12    1
    48    13    14    2
    49   145   144    2
    50    38    37    1
    51    38    39    2
    52     9    10    2
    53    44    45    1
    54    19    17   am
    55   150   153    1
    56   150   149    1
    57    37    36    1
    58    37    40    1
    59   125   128    1
    60   138   139    1
    61    17    16    1
    62    17    18    2
    63   153   154    1
    64   102   103    1
    65   106   103    1
    66   106   107    1
    67   108   107   ar
    68   108   110   ar
    69    42    41    1
    70    45    46    1
    71    45    48    1
    72   144   149   am
    73   144   143    1
    74    46    47    2
    75   103   104    1
    76    41    40    1
    77    41    43    1
    78   107   109   ar
    79   156   157    1
    80   139   140    1
    81   128   129    1
    82   110   111   ar
    83   142   140   am
    84   142   143    1
    85   130   129   ar
    86   140   141    2
    87   143   146    1
    88    48    49    1
    89    52    53    1
    90   129   131   ar
    91   104   105    2
    92   146   148    1
    93   146   147    1
    94   109   111   ar
    95   109   112   ar
    96   157   158    1
    97   157   160    1
    98   111   113   ar
    99   159   158    2
   100    50    49   ar
   101    49    51   ar
   102   161   160    1
   103   161   162    1
   104   118   117    1
   105   118   119    2
   106   112   114   ar
   107    53    54    1
   108   113   115   ar
   109   117   116    1
   110   117   120    1
   111   101    99    1
   112    59    58    2
   113   100    98    1
   114   162   163    1
   115   114   115   ar
   116    56    54   am
   117    56    57    1
   118   120   122    1
   119   120   121    1
   120    54    55    2
   121    98    99    1
   122    98    95    1
   123    97    96    2
   124    58    57    1
   125    61    60    1
   126    57    60    1
   127    96    95    1
   128   163   164    2
   129   121   123    1
   130    95    94    1
   131   165   164    1
   132   164   166    1
   133    86    85    2
   134    93    92   ar
   135    93    91   ar
   136    92    90   ar
   137    91    89   ar
   138    85    84    1
   139    90    88   ar
   140    89    88   ar
   141    88    87    1
   142    73    72    1
   143    84    87    1
   144    84    83    1
   145    77    76    2
   146    72    71   ar
   147    72    70   ar
   148    71    69   ar
   149    83    76   am
   150    70    68   ar
   151    76    75    1
   152    69    67   ar
   153    68    67   ar
   154    67    66    1
   155    75    78    1
   156    75    74    1
   157    66    63    1
   158    78    79    1
   159    79    80    1
   160    63    64    1
   161    63    62    1
   162    80    81    1
   163    64    65    2
   164    81    82    1
