@<TRIPOS>MOLECULE
tmp/2va7A00.pdb
 192 186 0 0 0
SMALL
GASTEIGER

@<TRIPOS>ATOM
      1  N         73.4360   44.1040   -3.0080 N.3    12  SER12      -0.1202
      2  CA        72.5400   43.5860   -1.9780 C.3    12  SER12       0.2020
      3  C         73.2700   43.2050   -0.7280 C.2    12  SER12       0.2619
      4  O         72.6780   43.1380    0.3720 O.2    12  SER12      -0.2717
      5  CB        71.7470   42.3500   -2.4990 C.3    12  SER12       0.2103
      6  OG        72.4390   41.1110   -2.3370 O.3    12  SER12      -0.2182
      7  N         74.5350   42.8460   -0.9010 N.am   13  GLY13      -0.1942
      8  CA        75.3950   42.4820    0.2280 C.3    13  GLY13       0.2014
      9  C         75.6430   43.6140    1.2080 C.2    13  GLY13       0.2639
     10  O         75.5260   43.4070    2.4090 O.2    13  GLY13      -0.2714
     11  N         75.9790   44.8050    0.6900 N.am   14  GLN14      -0.1963
     12  CA        76.3590   45.9610    1.5230 C.3    14  GLN14       0.1733
     13  C         75.4020   47.1800    1.4350 C.2    14  GLN14       0.2617
     14  O         75.5310   48.1250    2.2270 O.2    14  GLN14      -0.2715
     15  CB        77.7780   46.4190    1.1410 C.3    14  GLN14       0.0408
     16  CG        78.9220   45.8440    2.0190 C.3    14  GLN14       0.0908
     17  CD        80.2340   46.6240    1.8910 C.2    14  GLN14       0.2608
     18  OE1       81.0970   46.5460    2.7560 O.2    14  GLN14      -0.2717
     19  NE2       80.3820   47.3780    0.8090 N.am   14  GLN14      -0.0878
     20  N         74.4800   47.1690    0.4650 N.am   15  GLY15      -0.1940
     21  CA        73.4680   48.2000    0.3200 C.3    15  GLY15       0.2014
     22  C         73.6780   49.0380   -0.9110 C.2    15  GLY15       0.2638
     23  O         74.7660   49.0790   -1.4470 O.2    15  GLY15      -0.2714
     24  N         72.6280   49.7360   -1.3410 N.am   16  TYR16      -0.1973
     25  CA        72.7220   50.6480   -2.4740 C.3    16  TYR16       0.1639
     26  C         72.6840   52.0630   -1.9440 C.2    16  TYR16       0.2290
     27  O         71.8860   52.3600   -1.0730 O.2    16  TYR16      -0.2864
     28  CB        71.5750   50.4000   -3.4690 C.3    16  TYR16       0.0560
     29  CG        71.6850   49.0390   -4.1700 C.ar   16  TYR16      -0.0198
     30  CD1       71.2330   47.8870   -3.5560 C.ar   16  TYR16      -0.0009
     31  CD2       72.2660   48.9230   -5.4030 C.ar   16  TYR16      -0.0009
     32  CE1       71.3480   46.6530   -4.1610 C.ar   16  TYR16       0.0417
     33  CE2       72.3840   47.6770   -6.0180 C.ar   16  TYR16       0.0417
     34  CZ        71.9220   46.5540   -5.3780 C.ar   16  TYR16       0.1957
     35  OH        72.0340   45.3120   -5.9640 O.3    16  TYR16      -0.2866
     36  N         72.8270   55.4520    2.1610 N.3    32  LEU32      -0.1245
     37  CA        71.9880   54.2620    1.9200 C.3    32  LEU32       0.1561
     38  C         70.5370   54.5700    1.5890 C.2    32  LEU32       0.2260
     39  O         69.8410   55.2920    2.3160 O.2    32  LEU32      -0.2867
     40  CB        72.0040   53.3770    3.1610 C.3    32  LEU32       0.0270
     41  CG        71.2730   52.0260    3.0720 C.3    32  LEU32       0.0019
     42  CD1       72.2090   50.9490    2.5970 C.3    32  LEU32       0.0001
     43  CD2       70.6790   51.6410    4.3990 C.3    32  LEU32       0.0001
     44  N         67.0120   53.4000    1.7530 N.3    34  ASP34      -0.1239
     45  CA        66.3840   52.4730    2.6530 C.3    34  ASP34       0.1674
     46  C         64.8860   52.6760    2.6450 C.2    34  ASP34       0.2266
     47  O         64.3690   53.5450    3.3600 O.2    34  ASP34      -0.2867
     48  CB        66.9890   52.6660    4.0850 C.3    34  ASP34       0.1410
     49  CG        66.4550   51.6700    5.1190 C.2    34  ASP34       0.3668
     50  OD1       65.8720   50.6380    4.7220 O.co2  34  ASP34      -0.2456
     51  OD2       66.6100   51.9230    6.3550 O.co2  34  ASP34      -0.2456
     52  N         62.9360   50.7480    3.9930 N.3    36  GLY36      -0.1210
     53  CA        62.4890   50.1050    5.2470 C.3    36  GLY36       0.1956
     54  C         62.5890   50.9590    6.5260 C.2    36  GLY36       0.2612
     55  O         62.3890   50.4610    7.6430 O.2    36  GLY36      -0.2717
     56  N         62.8780   52.2460    6.3780 N.am   37  SER37      -0.1952
     57  CA        62.9390   53.1100    7.5270 C.3    37  SER37       0.1924
     58  C         62.5730   54.5320    7.0820 C.2    37  SER37       0.2314
     59  O         62.4070   54.7920    5.8820 O.2    37  SER37      -0.2863
     60  CB        64.3420   53.0280    8.1220 C.3    37  SER37       0.2116
     61  OG        65.2760   53.7130    7.2900 O.3    37  SER37      -0.2180
     62  N         68.1800   48.6750   17.0670 N.3    73  TYR73      -0.1227
     63  CA        67.7280   47.7100   16.0650 C.3    73  TYR73       0.1736
     64  C         68.1130   46.3170   16.5770 C.2    73  TYR73       0.2596
     65  O         68.7410   46.2130   17.6270 O.2    73  TYR73      -0.2718
     66  CB        68.3690   47.9860   14.6920 C.3    73  TYR73       0.0548
     67  CG        67.9140   49.2820   14.0570 C.ar   73  TYR73      -0.0200
     68  CD1       68.8130   50.3000   13.7260 C.ar   73  TYR73      -0.0009
     69  CD2       66.5710   49.4940   13.8050 C.ar   73  TYR73      -0.0009
     70  CE1       68.3490   51.5160   13.1430 C.ar   73  TYR73       0.0417
     71  CE2       66.0980   50.6780   13.2340 C.ar   73  TYR73       0.0417
     72  CZ        66.9760   51.6850   12.9050 C.ar   73  TYR73       0.1957
     73  OH        66.4270   52.8250   12.3560 O.3    73  TYR73      -0.2866
     74  N         67.7460   45.2530   15.8540 N.am   74  THR74      -0.1953
     75  CA        67.9280   43.8850   16.3630 C.3    74  THR74       0.1897
     76  C         69.3710   43.6890   16.8350 C.2    74  THR74       0.2313
     77  O         69.6120   43.3580   18.0080 O.2    74  THR74      -0.2863
     78  CB        67.5670   42.7940   15.3150 C.3    74  THR74       0.1794
     79  OG1       66.3150   43.1020   14.6830 O.3    74  THR74      -0.2208
     80  CG2       67.4800   41.4290   15.9900 C.3    74  THR74       0.0378
     81  N         72.0100   53.3230   16.8500 N.3    78  TRP78      -0.1241
     82  CA        72.6320   54.6220   16.7690 C.3    78  TRP78       0.1605
     83  C         71.9120   55.6180   17.6410 C.2    78  TRP78       0.2264
     84  O         70.7870   55.3910   18.0600 O.2    78  TRP78      -0.2867
     85  CB        72.7480   55.1370   15.3480 C.3    78  TRP78       0.0550
     86  CG        71.4900   55.2230   14.5610 C.ar   78  TRP78       0.0003
     87  CD1       70.9760   54.2680   13.7600 C.ar   78  TRP78       0.0946
     88  CD2       70.6470   56.3720   14.4090 C.ar   78  TRP78       0.0152
     89  NE1       69.8250   54.7210   13.1430 N.ar   78  TRP78      -0.2442
     90  CE2       69.5990   56.0100   13.5270 C.ar   78  TRP78       0.0810
     91  CE3       70.6450   57.6530   14.9710 C.ar   78  TRP78       0.0012
     92  CZ2       68.5860   56.8780   13.1750 C.ar   78  TRP78       0.0191
     93  CZ3       69.6370   58.5350   14.6030 C.ar   78  TRP78       0.0001
     94  CH2       68.6100   58.1360   13.7280 C.ar   78  TRP78       0.0015
     95  N         77.5410   48.5040   15.7250 N.3   109  LYS109     -0.1231
     96  CA        77.1390   47.4880   14.7280 C.3   109  LYS109      0.1693
     97  C         76.1720   48.0920   13.6940 C.2   109  LYS109      0.2592
     98  O         75.2950   47.4380   13.1550 O.2   109  LYS109     -0.2718
     99  CB        76.5900   46.2140   15.4270 C.3   109  LYS109      0.0285
    100  CG        77.6970   45.4810   16.2300 C.3   109  LYS109      0.0035
    101  CD        77.3160   44.1140   16.8750 C.3   109  LYS109      0.0206
    102  CE        78.5670   43.4710   17.5830 C.3   109  LYS109      0.1093
    103  NZ        78.5280   41.9720   17.7750 N.3   109  LYS109     -0.1314
    104  N         76.3630   49.3680   13.4140 N.am  110  PHE110     -0.1976
    105  CA        75.5480   50.0290   12.4400 C.3   110  PHE110      0.1639
    106  C         76.2990   50.1980   11.1190 C.2   110  PHE110      0.2290
    107  O         76.0380   49.4680   10.1660 O.2   110  PHE110     -0.2864
    108  CB        75.0610   51.3390   13.0070 C.3   110  PHE110      0.0560
    109  CG        73.9980   51.9460   12.1960 C.ar  110  PHE110     -0.0200
    110  CD1       72.7320   51.4200   12.2210 C.ar  110  PHE110     -0.0042
    111  CD2       74.2600   53.0020   11.3730 C.ar  110  PHE110     -0.0042
    112  CE1       71.7480   51.9690   11.4670 C.ar  110  PHE110     -0.0003
    113  CE2       73.2640   53.5280   10.6060 C.ar  110  PHE110     -0.0003
    114  CZ        72.0080   53.0150   10.6840 C.ar  110  PHE110     -0.0000
    115  N         79.1960   49.7500    8.3740 N.3   112  ILE112     -0.1245
    116  CA        79.8990   48.5590    7.9330 C.3   112  ILE112      0.1561
    117  C         81.3560   48.9290    7.6770 C.2   112  ILE112      0.2260
    118  O         81.6460   49.8480    6.9100 O.2   112  ILE112     -0.2867
    119  CB        79.2670   47.9880    6.6290 C.3   112  ILE112      0.0252
    120  CG1       77.8520   47.4750    6.8810 C.3   112  ILE112      0.0019
    121  CG2       80.1310   46.8840    6.0330 C.3   112  ILE112      0.0019
    122  CD1       77.0440   47.3170    5.5540 C.3   112  ILE112      0.0001
    123  N         79.3940   54.1870    2.2780 N.3   117  TRP117     -0.1241
    124  CA        78.3650   55.1290    2.6490 C.3   117  TRP117      0.1605
    125  C         78.3940   55.4230    4.1410 C.2   117  TRP117      0.2264
    126  O         78.9520   54.6470    4.9420 O.2   117  TRP117     -0.2867
    127  CB        76.9990   54.6300    2.2060 C.3   117  TRP117      0.0550
    128  CG        76.6720   53.2510    2.6520 C.ar  117  TRP117      0.0003
    129  CD1       76.8450   52.1180    1.9490 C.ar  117  TRP117      0.0946
    130  CD2       76.0540   52.8740    3.8820 C.ar  117  TRP117      0.0152
    131  NE1       76.3830   51.0470    2.6590 N.ar  117  TRP117     -0.2442
    132  CE2       75.8870   51.4820    3.8510 C.ar  117  TRP117      0.0810
    133  CE3       75.6480   53.5760    5.0170 C.ar  117  TRP117      0.0012
    134  CZ2       75.3270   50.7800    4.8960 C.ar  117  TRP117      0.0191
    135  CZ3       75.0990   52.8870    6.0450 C.ar  117  TRP117      0.0001
    136  CH2       74.9460   51.4940    5.9910 C.ar  117  TRP117      0.0015
    137  N         71.8920   57.1310    6.1040 N.3   120  ILE120     -0.1245
    138  CA        70.7240   56.3710    5.7170 C.3   120  ILE120      0.1561
    139  C         69.6650   57.3510    5.2380 C.2   120  ILE120      0.2260
    140  O         69.4120   58.3810    5.8920 O.2   120  ILE120     -0.2867
    141  CB        70.1390   55.5780    6.9100 C.3   120  ILE120      0.0252
    142  CG1       71.2160   54.7370    7.5930 C.3   120  ILE120      0.0019
    143  CG2       68.9680   54.6910    6.4530 C.3   120  ILE120      0.0019
    144  CD1       71.8800   53.6920    6.6980 C.3   120  ILE120      0.0001
    145  N         61.6770   46.3800    0.9330 N.3   217  ASP217     -0.1225
    146  CA        62.7410   46.9730    1.7430 C.3   217  ASP217      0.1805
    147  C         64.0730   46.8890    1.0660 C.2   217  ASP217      0.2598
    148  O         64.7440   45.8510    1.1290 O.2   217  ASP217     -0.2718
    149  CB        62.8170   46.3030    3.1260 C.3   217  ASP217      0.1424
    150  CG        63.7850   47.0000    4.0710 C.2   217  ASP217      0.3668
    151  OD1       64.3500   48.0440    3.7010 O.co2 217  ASP217     -0.2456
    152  OD2       63.9780   46.5000    5.1960 O.co2 217  ASP217     -0.2456
    153  N         64.4730   48.0090    0.4590 N.am  218  SER218     -0.1938
    154  CA        65.7380   48.1210   -0.2240 C.3   218  SER218      0.2055
    155  C         66.9580   48.0410    0.7330 C.2   218  SER218      0.2644
    156  O         68.0870   47.9410    0.2710 O.2   218  SER218     -0.2714
    157  CB        65.7760   49.4150   -1.0180 C.3   218  SER218      0.2130
    158  OG        65.7480   50.5450   -0.1630 O.3   218  SER218     -0.2179
    159  N         66.7370   48.0910    2.0390 N.am  219  GLY219     -0.1939
    160  CA        67.8330   48.0200    3.0270 C.3   219  GLY219      0.2014
    161  C         67.9030   46.6870    3.7920 C.2   219  GLY219      0.2640
    162  O         68.5660   46.5910    4.8300 O.2   219  GLY219     -0.2714
    163  N         67.1710   45.6810    3.2940 N.am  220  THR220     -0.1936
    164  CA        67.3220   44.2740    3.6890 C.3   220  THR220      0.2028
    165  C         67.8440   43.5260    2.4660 C.2   220  THR220      0.2642
    166  O         67.3410   43.7070    1.3500 O.2   220  THR220     -0.2714
    167  CB        65.9970   43.6680    4.0780 C.3   220  THR220      0.1808
    168  OG1       65.5150   44.2740    5.2830 O.3   220  THR220     -0.2208
    169  CG2       66.1220   42.1600    4.2770 C.3   220  THR220      0.0379
    170  N         68.8670   42.7050    2.6680 N.am  221  THR221     -0.1950
    171  CA        69.4570   41.9100    1.5920 C.3   221  THR221      0.1897
    172  C         68.5050   40.8010    1.0850 C.2   221  THR221      0.2313
    173  O         68.3090   40.6410   -0.1170 O.2   221  THR221     -0.2863
    174  CB        70.7570   41.2330    2.0900 C.3   221  THR221      0.1794
    175  OG1       71.7160   42.2330    2.4690 O.3   221  THR221     -0.2208
    176  CG2       71.3520   40.3190    1.0260 C.3   221  THR221      0.0378
    177  N         62.8690   37.6210    3.2460 N.3   224  ARG224     -0.1245
    178  CA        62.6950   37.0940    4.5700 C.3   224  ARG224      0.1563
    179  C         61.2620   36.5880    4.6110 C.2   224  ARG224      0.2260
    180  O         60.3800   37.2690    4.1030 O.2   224  ARG224     -0.2867
    181  CB        62.9490   38.1700    5.6590 C.3   224  ARG224      0.0307
    182  CG        64.4520   38.6650    5.8280 C.3   224  ARG224      0.0489
    183  CD        64.6620   39.6290    7.0630 C.3   224  ARG224      0.2205
    184  NE        64.6030   38.9440    8.3570 N.pl3 224  ARG224     -0.0865
    185  CZ        64.0350   39.4110    9.4870 C.cat 224  ARG224      0.5346
    186  NH1       63.4420   40.6000    9.5450 N.pl3 224  ARG224      0.1354
    187  NH2       64.0390   38.6590   10.6000 N.pl3 224  ARG224      0.1354
    188  N         66.5970   43.3740   -1.2980 N.3   324  ALA324     -0.1245
    189  CA        67.3640   43.8300   -2.4230 C.3   324  ALA324      0.1562
    190  C         67.4730   42.7200   -3.4570 C.2   324  ALA324      0.2260
    191  O         67.6060   42.9720   -4.6640 O.2   324  ALA324     -0.2867
    192  CB        68.7530   44.2690   -1.9620 C.3   324  ALA324      0.0290
@<TRIPOS>BOND
     1    33    31   ar
     2    33    34   ar
     3    35    34    1
     4    31    29   ar
     5    34    32   ar
     6   191   190    2
     7    29    30   ar
     8    29    28    1
     9    32    30   ar
    10    28    25    1
    11   190   189    1
    12     1     2    1
    13     5     6    1
    14     5     2    1
    15    25    26    1
    16    25    24    1
    17   189   192    1
    18   189   188    1
    19     2     3    1
    20    26    27    2
    21    23    22    2
    22    24    22   am
    23   157   154    1
    24   157   158    1
    25    22    21    1
    26     7     3   am
    27     7     8    1
    28     3     4    2
    29   154   153    1
    30   154   155    1
    31   173   172    2
    32     8     9    1
    33   156   155    2
    34    21    20    1
    35   153   147   am
    36    20    13   am
    37    11     9   am
    38    11    12    1
    39   155   159   am
    40    19    17   am
    41   145   146    1
    42   176   174    1
    43   147   148    2
    44   147   146    1
    45   172   171    1
    46    15    12    1
    47    15    16    1
    48     9    10    2
    49   166   165    2
    50    13    12    1
    51    13    14    2
    52    38    37    1
    53    38    39    2
    54   171   174    1
    55   171   170    1
    56   146   149    1
    57    44    45    1
    58    17    16    1
    59    17    18    2
    60    37    36    1
    61    37    40    1
    62   129   128   ar
    63   129   131   ar
    64   159   160    1
    65   174   175    1
    66   127   124    1
    67   127   128    1
    68   123   124    1
    69   165   170   am
    70   165   164    1
    71    42    41    1
    72    46    45    1
    73    46    47    2
    74   124   125    1
    75   128   130   ar
    76    45    48    1
    77   131   132   ar
    78   160   161    1
    79    41    40    1
    80    41    43    1
    81   149   150    1
    82   177   178    1
    83   163   164    1
    84   163   161   am
    85   164   167    1
    86   151   150   ar
    87   161   162    2
    88   132   130   ar
    89   132   134   ar
    90   130   133   ar
    91    52    53    1
    92   150   152   ar
    93   167   169    1
    94   167   168    1
    95    48    49    1
    96   180   179    2
    97   125   126    2
    98   178   179    1
    99   178   181    1
   100    50    49   ar
   101   134   136   ar
   102   133   135   ar
   103    49    51   ar
   104   139   138    1
   105   139   140    2
   106    53    54    1
   107   122   120    1
   108   181   182    1
   109   138   137    1
   110   138   141    1
   111   182   183    1
   112    59    58    2
   113   136   135   ar
   114   121   119    1
   115    56    54   am
   116    56    57    1
   117   143   141    1
   118    54    55    2
   119   119   120    1
   120   119   116    1
   121   144   142    1
   122   118   117    2
   123   141   142    1
   124   183   184    1
   125    58    57    1
   126    61    60    1
   127    57    60    1
   128   117   116    1
   129   116   115    1
   130   184   185    2
   131   185   186    1
   132   185   187    1
   133   107   106    2
   134   113   114   ar
   135   113   111   ar
   136   114   112   ar
   137   106   105    1
   138   111   109   ar
   139   112   110   ar
   140   109   110   ar
   141   109   108    1
   142    73    72    1
   143   105   108    1
   144   105   104    1
   145    72    70   ar
   146    72    71   ar
   147    89    90   ar
   148    89    87   ar
   149    70    68   ar
   150    98    97    2
   151    92    90   ar
   152    92    94   ar
   153    71    69   ar
   154   104    97   am
   155    90    88   ar
   156    97    96    1
   157    68    67   ar
   158    94    93   ar
   159    87    86   ar
   160    69    67   ar
   161    67    66    1
   162    88    86   ar
   163    88    91   ar
   164    86    85    1
   165    93    91   ar
   166    79    78    1
   167    66    63    1
   168    96    99    1
   169    96    95    1
   170    78    80    1
   171    78    75    1
   172    85    82    1
   173    99   100    1
   174    74    75    1
   175    74    64   am
   176    63    64    1
   177    63    62    1
   178   100   101    1
   179    75    76    1
   180    64    65    2
   181    82    81    1
   182    82    83    1
   183    76    77    2
   184   101   102    1
   185   102   103    1
   186    83    84    2
