@<TRIPOS>MOLECULE
tmp/2vagA00.pdb
 168 155 0 0 0
SMALL
GASTEIGER

@<TRIPOS>ATOM
      1  N          5.9570   21.5880   23.4200 N.3    21  LEU21      -0.1231
      2  CA         7.2250   20.8260   23.4370 C.3    21  LEU21       0.1693
      3  C          7.7400   20.5240   22.0240 C.2    21  LEU21       0.2593
      4  O          8.9350   20.3570   21.8250 O.2    21  LEU21      -0.2718
      5  CB         7.0460   19.5400   24.2300 C.3    21  LEU21       0.0284
      6  CG         6.7580   19.7530   25.7210 C.3    21  LEU21       0.0019
      7  CD1        6.5850   18.4290   26.4330 C.3    21  LEU21       0.0001
      8  CD2        7.8390   20.5720   26.3690 C.3    21  LEU21       0.0001
      9  N          6.8440   20.4510   21.0480 N.am   22  GLY22      -0.1942
     10  CA         7.2290   20.0950   19.6930 C.3    22  GLY22       0.2014
     11  C          6.0400   19.9750   18.7650 C.2    22  GLY22       0.2639
     12  O          4.8780   19.9280   19.2050 O.2    22  GLY22      -0.2714
     13  N          6.3330   19.9420   17.4680 N.am   23  GLU23      -0.1963
     14  CA         5.3280   19.7840   16.4530 C.3    23  GLU23       0.1733
     15  C          5.8070   18.7540   15.4280 C.2    23  GLU23       0.2616
     16  O          6.9970   18.6890   15.0970 O.2    23  GLU23      -0.2715
     17  CB         5.0620   21.1230   15.7720 C.3    23  GLU23       0.0429
     18  CG         4.5590   22.1620   16.7600 C.3    23  GLU23       0.1163
     19  CD         5.6990   23.0480   17.2300 C.2    23  GLU23       0.3649
     20  OE1        6.8720   22.8200   16.8580 O.co2  23  GLU23      -0.2457
     21  OE2        5.4070   24.0030   17.9790 O.co2  23  GLU23      -0.2457
     22  N          4.8770   17.9320   14.9610 N.am   24  GLY24      -0.1955
     23  CA         5.1920   16.9150   13.9790 C.3    24  GLY24       0.1869
     24  C          4.0630   16.8340   12.9850 C.2    24  GLY24       0.2309
     25  O          3.1670   17.6580   13.0030 O.2    24  GLY24      -0.2863
     26  N          1.7770   14.6770   12.8760 N.3    26  PHE26      -0.1241
     27  CA         0.5700   14.2320   13.5790 C.3    26  PHE26       0.1605
     28  C         -0.1580   15.3480   14.2900 C.2    26  PHE26       0.2264
     29  O         -1.3270   15.1820   14.6450 O.2    26  PHE26      -0.2867
     30  CB         0.9210   13.1950   14.6470 C.3    26  PHE26       0.0534
     31  CG         1.9040   13.6870   15.6750 C.ar   26  PHE26      -0.0203
     32  CD1        1.5190   14.5700   16.7020 C.ar   26  PHE26      -0.0042
     33  CD2        3.2300   13.2390   15.6300 C.ar   26  PHE26      -0.0042
     34  CE1        2.4910   14.9900   17.6890 C.ar   26  PHE26      -0.0003
     35  CE2        4.1650   13.6620   16.5660 C.ar   26  PHE26      -0.0003
     36  CZ         3.8010   14.5310   17.5870 C.ar   26  PHE26      -0.0000
     37  N          2.8950   18.3210   20.5600 N.3    29  VAL29      -0.1245
     38  CA         2.9770   17.8220   21.9300 C.3    29  VAL29       0.1561
     39  C          3.1450   19.0290   22.8650 C.2    29  VAL29       0.2260
     40  O          4.0140   19.8860   22.6460 O.2    29  VAL29      -0.2867
     41  CB         4.1350   16.7970   22.1330 C.3    29  VAL29       0.0252
     42  CG1        4.1780   16.3730   23.5910 C.3    29  VAL29       0.0019
     43  CG2        3.9290   15.6010   21.1730 C.3    29  VAL29       0.0019
     44  N          3.3370   15.2840   29.5190 N.3    43  ALA43      -0.1245
     45  CA         3.2410   15.6610   28.1060 C.3    43  ALA43       0.1562
     46  C          1.9250   15.1780   27.5420 C.2    43  ALA43       0.2260
     47  O          1.4570   14.0640   27.8710 O.2    43  ALA43      -0.2867
     48  CB         4.4070   15.0950   27.2850 C.3    43  ALA43       0.0290
     49  N          0.1100   14.6840   23.8220 N.3    45  LYS45      -0.1245
     50  CA         0.1430   14.6470   22.3530 C.3    45  LYS45       0.1561
     51  C         -1.2240   15.0080   21.8060 C.2    45  LYS45       0.2260
     52  O         -2.2150   14.3070   22.0300 O.2    45  LYS45      -0.2867
     53  CB         0.5940   13.2610   21.8940 C.3    45  LYS45       0.0271
     54  CG         0.7030   13.0400   20.4010 C.3    45  LYS45       0.0035
     55  CD         1.4560   11.7410   20.1440 C.3    45  LYS45       0.0206
     56  CE         1.4840   11.3910   18.6470 C.3    45  LYS45       0.1093
     57  NZ         2.3630   10.1880   18.3480 N.3    45  LYS45      -0.1314
     58  N         -1.5390    3.7360   18.2110 N.3    60  GLU60      -0.1245
     59  CA        -0.4880    4.0000   19.1610 C.3    60  GLU60       0.1567
     60  C         -0.9910    3.7370   20.5810 C.2    60  GLU60       0.2260
     61  O         -0.3040    3.1240   21.3750 O.2    60  GLU60      -0.2867
     62  CB         0.0410    5.4260   19.0020 C.3    60  GLU60       0.0388
     63  CG         0.9860    5.8720   20.1100 C.3    60  GLU60       0.1160
     64  CD         1.6940    7.1860   19.8030 C.2    60  GLU60       0.3649
     65  OE1        1.0320    8.1240   19.2800 O.co2  60  GLU60      -0.2457
     66  OE2        2.9220    7.2850   20.0860 O.co2  60  GLU60      -0.2457
     67  N          8.2650    4.9630   26.0520 N.3    79  VAL79      -0.1245
     68  CA         7.5130    6.0570   26.6820 C.3    79  VAL79       0.1561
     69  C          6.2720    5.4910   27.3970 C.2    79  VAL79       0.2260
     70  O          5.6560    4.5470   26.9110 O.2    79  VAL79      -0.2867
     71  CB         7.1010    7.1200   25.6040 C.3    79  VAL79       0.0252
     72  CG1        6.0910    6.5430   24.6470 C.3    79  VAL79       0.0019
     73  CG2        6.5760    8.3820   26.2720 C.3    79  VAL79       0.0019
     74  N          1.3510   11.4750   28.3190 N.3    95  PHE95      -0.1227
     75  CA         2.6050   10.7660   28.5740 C.3    95  PHE95       0.1736
     76  C          3.3300   11.2960   29.7960 C.2    95  PHE95       0.2595
     77  O          3.2520   12.4950   30.1070 O.2    95  PHE95      -0.2718
     78  CB         3.5690   10.9400   27.4000 C.3    95  PHE95       0.0547
     79  CG         3.1090   10.3260   26.1220 C.ar   95  PHE95      -0.0202
     80  CD1        3.0770    8.9520   25.9710 C.ar   95  PHE95      -0.0042
     81  CD2        2.7380   11.1310   25.0480 C.ar   95  PHE95      -0.0042
     82  CE1        2.6600    8.3850   24.7690 C.ar   95  PHE95      -0.0003
     83  CE2        2.3510   10.5700   23.8480 C.ar   95  PHE95      -0.0003
     84  CZ         2.3020    9.1900   23.7240 C.ar   95  PHE95      -0.0000
     85  N          4.0740   10.4070   30.4650 N.am   96  GLU96      -0.1979
     86  CA         5.0840   10.8650   31.4230 C.3    96  GLU96       0.1602
     87  C          5.9120   11.9060   30.6670 C.2    96  GLU96       0.2287
     88  O          6.1800   11.7160   29.4770 O.2    96  GLU96      -0.2864
     89  CB         6.0090    9.7230   31.8790 C.3    96  GLU96       0.0415
     90  CG         6.9420    9.1690   30.7640 C.3    96  GLU96       0.1163
     91  CD         7.9320    8.1030   31.2560 C.2    96  GLU96       0.3649
     92  OE1        8.4940    8.2720   32.3470 O.co2  96  GLU96      -0.2457
     93  OE2        8.1280    7.1000   30.5450 O.co2  96  GLU96      -0.2457
     94  N          8.9940   13.8230   29.1630 N.3    98  LEU98      -0.1231
     95  CA        10.3900   13.5950   28.8110 C.3    98  LEU98       0.1693
     96  C         11.0060   14.8760   28.3060 C.2    98  LEU98       0.2592
     97  O         10.3120   15.8670   28.0890 O.2    98  LEU98      -0.2718
     98  CB        10.5180   12.5350   27.7290 C.3    98  LEU98       0.0284
     99  CG        10.0000   11.1340   28.0610 C.3    98  LEU98       0.0019
    100  CD1        9.9690   10.2780   26.7620 C.3    98  LEU98       0.0001
    101  CD2       10.8260   10.4890   29.1600 C.3    98  LEU98       0.0001
    102  N         12.3160   14.8250   28.1070 N.am   99  GLY99      -0.1957
    103  CA        13.1130   15.9430   27.6440 C.3    99  GLY99       0.1869
    104  C         13.2100   16.0440   26.1390 C.2    99  GLY99       0.2309
    105  O         12.4070   15.4610   25.3820 O.2    99  GLY99      -0.2863
    106  N         14.2870   15.8020   22.2640 N.3   101  SER101     -0.1217
    107  CA        14.6980   14.7020   21.3750 C.3   101  SER101      0.1889
    108  C         16.1930   14.8230   21.0910 C.2   101  SER101      0.2288
    109  O         16.7920   15.9100   21.2160 O.2   101  SER101     -0.2866
    110  CB        13.9140   14.6970   20.0560 C.3   101  SER101      0.2089
    111  OG        14.4410   15.6420   19.1550 O.3   101  SER101     -0.2183
    112  N         16.7610   17.3730   18.3140 N.3   104  ASP104     -0.1239
    113  CA        16.6840   18.7510   18.8140 C.3   104  ASP104      0.1674
    114  C         17.9260   19.1340   19.6000 C.2   104  ASP104      0.2266
    115  O         18.4070   20.2470   19.4930 O.2   104  ASP104     -0.2867
    116  CB        15.4220   18.9500   19.6530 C.3   104  ASP104      0.1410
    117  CG        14.1650   19.0410   18.7950 C.2   104  ASP104      0.3668
    118  OD1       14.1310   19.9140   17.9160 O.co2 104  ASP104     -0.2456
    119  OD2       13.2170   18.2620   19.0060 O.co2 104  ASP104     -0.2456
    120  N         14.2720    7.2550   14.4270 N.3   144  LYS144     -0.1245
    121  CA        15.0680    8.3520   13.9710 C.3   144  LYS144      0.1561
    122  C         15.3910    9.1980   15.2250 C.2   144  LYS144      0.2260
    123  O         14.7230    9.0510   16.2370 O.2   144  LYS144     -0.2867
    124  CB        14.2970    9.1720   12.9100 C.3   144  LYS144      0.0271
    125  CG        12.9540    9.7160   13.4020 C.3   144  LYS144      0.0035
    126  CD        12.1910   10.4210   12.3050 C.3   144  LYS144      0.0206
    127  CE        10.8240   10.8780   12.7660 C.3   144  LYS144      0.1093
    128  NZ        10.1520   11.7490   11.7260 N.3   144  LYS144     -0.1314
    129  N         14.7560   12.1230   16.0510 N.3   146  GLU146     -0.1231
    130  CA        13.6090   12.8850   16.5270 C.3   146  GLU146      0.1699
    131  C         12.6870   12.0430   17.4080 C.2   146  GLU146      0.2592
    132  O         11.9600   12.5980   18.2320 O.2   146  GLU146     -0.2718
    133  CB        12.8750   13.5750   15.3490 C.3   146  GLU146      0.0402
    134  CG        11.7440   14.5090   15.7720 C.3   146  GLU146      0.1161
    135  CD        11.1540   15.2940   14.6110 C.2   146  GLU146      0.3649
    136  OE1       11.6740   15.2250   13.4730 O.co2 146  GLU146     -0.2457
    137  OE2       10.1400   15.9670   14.8320 O.co2 146  GLU146     -0.2457
    138  N         12.7250   10.7140   17.2650 N.am  147  ASN147     -0.1974
    139  CA        11.9040    9.8050   18.0710 C.3   147  ASN147      0.1688
    140  C         12.6160    9.1600   19.2730 C.2   147  ASN147      0.2292
    141  O         12.1100    8.2210   19.8630 O.2   147  ASN147     -0.2864
    142  CB        11.1690    8.7700   17.1820 C.3   147  ASN147      0.1181
    143  CG        10.0840    9.4230   16.3170 C.2   147  ASN147      0.2629
    144  OD1        9.6050   10.5140   16.6460 O.2   147  ASN147     -0.2716
    145  ND2        9.7050    8.7750   15.2110 N.am  147  ASN147     -0.0877
    146  N         14.1190   10.3450   22.7880 N.3   149  LEU149     -0.1245
    147  CA        14.0630   11.5040   23.6820 C.3   149  LEU149      0.1561
    148  C         14.9100   11.2720   24.9110 C.2   149  LEU149      0.2260
    149  O         14.8720   10.1960   25.5260 O.2   149  LEU149     -0.2867
    150  CB        12.6060   11.8210   24.0950 C.3   149  LEU149      0.0270
    151  CG        11.7740   12.7460   23.1980 C.3   149  LEU149      0.0019
    152  CD1       11.7270   12.2740   21.7890 C.3   149  LEU149      0.0001
    153  CD2       10.3530   12.9920   23.7630 C.3   149  LEU149      0.0001
    154  N         10.0450    6.8010   21.6360 N.3   175  VAL175     -0.1231
    155  CA         8.6840    7.3450   21.4900 C.3   175  VAL175      0.1692
    156  C          8.1490    7.1640   20.0660 C.2   175  VAL175      0.2592
    157  O          8.8610    6.6580   19.1600 O.2   175  VAL175     -0.2718
    158  CB         8.6020    8.8440   21.9260 C.3   175  VAL175      0.0266
    159  CG1        9.2180    9.0650   23.3660 C.3   175  VAL175      0.0020
    160  CG2        9.1940    9.7940   20.8850 C.3   175  VAL175      0.0020
    161  N          6.8770    7.5640   19.9190 N.am  176  ASP176     -0.1974
    162  CA         6.0950    7.5560   18.6650 C.3   176  ASP176      0.1709
    163  C          5.8250    6.1640   18.1480 C.2   176  ASP176      0.2293
    164  O          6.5530    5.6480   17.3110 O.2   176  ASP176     -0.2864
    165  CB         6.7240    8.4100   17.5750 C.3   176  ASP176      0.1436
    166  CG         5.7160    8.7610   16.4370 C.2   176  ASP176      0.3671
    167  OD1        4.6890    8.0570   16.2860 O.co2 176  ASP176     -0.2456
    168  OD2        5.9260    9.7740   15.7380 O.co2 176  ASP176     -0.2456
@<TRIPOS>BOND
     1   128   127    1
     2   126   127    1
     3   126   125    1
     4    26    27    1
     5   124   125    1
     6   124   121    1
     7    24    25    2
     8    24    23    1
     9   136   135   ar
    10    27    28    1
    11    27    30    1
    12   121   120    1
    13   121   122    1
    14    23    22    1
    15    28    29    2
    16   135   137   ar
    17   135   134    1
    18    30    31    1
    19    22    15   am
    20    16    15    2
    21   145   143   am
    22   122   123    2
    23   133   134    1
    24   133   130    1
    25    15    14    1
    26    33    31   ar
    27    33    35   ar
    28    31    32   ar
    29   168   166   ar
    30    17    14    1
    31    17    18    1
    32   129   130    1
    33   167   166   ar
    34   143   144    2
    35   143   142    1
    36   166   165    1
    37    14    13    1
    38   130   131    1
    39    35    36   ar
    40    32    34   ar
    41    18    19    1
    42    20    19   ar
    43   142   139    1
    44    19    21   ar
    45   138   131   am
    46   138   139    1
    47   164   163    2
    48   131   132    2
    49    13    11   am
    50   165   162    1
    51    36    34   ar
    52   118   117   ar
    53   139   140    1
    54   163   162    1
    55    58    59    1
    56   112   113    1
    57    57    56    1
    58    56    55    1
    59   162   161    1
    60    11    12    2
    61    11    10    1
    62   117   119   ar
    63   117   116    1
    64   113   114    1
    65   113   116    1
    66    62    59    1
    67    62    63    1
    68   111   110    1
    69   157   156    2
    70    59    60    1
    71   140   141    2
    72    65    64   ar
    73   115   114    2
    74    10     9    1
    75    64    66   ar
    76    64    63    1
    77   161   156   am
    78   110   107    1
    79   156   155    1
    80    55    54    1
    81    54    53    1
    82    37    38    1
    83    60    61    2
    84   160   158    1
    85     9     3   am
    86   108   109    2
    87   108   107    1
    88    43    41    1
    89   107   106    1
    90   155   154    1
    91   155   158    1
    92   152   151    1
    93    51    52    2
    94    51    50    1
    95     4     3    2
    96    53    50    1
    97   158   159    1
    98    38    41    1
    99    38    39    1
   100     3     2    1
   101    41    42    1
   102    50    49    1
   103    40    39    2
   104   146   147    1
   105   151   153    1
   106   151   150    1
   107     1     2    1
   108     2     5    1
   109   147   150    1
   110   147   148    1
   111    84    83   ar
   112    84    82   ar
   113    83    81   ar
   114     5     6    1
   115    72    71    1
   116    82    80   ar
   117   148   149    2
   118    81    79   ar
   119   105   104    2
   120    71    73    1
   121    71    68    1
   122     6     8    1
   123     6     7    1
   124    80    79   ar
   125    67    68    1
   126    79    78    1
   127   104   103    1
   128    68    69    1
   129   100    99    1
   130    70    69    2
   131    48    45    1
   132    78    75    1
   133    46    47    2
   134    46    45    1
   135   103   102    1
   136    98    99    1
   137    98    95    1
   138    99   101    1
   139    97    96    2
   140    45    44    1
   141   102    96   am
   142    96    95    1
   143    74    75    1
   144    75    76    1
   145    95    94    1
   146    88    87    2
   147    76    77    2
   148    76    85   am
   149    85    86    1
   150    93    91   ar
   151    87    86    1
   152    90    91    1
   153    90    89    1
   154    91    92   ar
   155    86    89    1
