@<TRIPOS>MOLECULE
tmp/2vaoA01.pdb
 133 127 0 0 0
SMALL
GASTEIGER

@<TRIPOS>ATOM
      1  N        102.8040   54.1750   74.0500 N.3   103  TYR103     -0.1241
      2  CA       101.8540   54.4260   72.9850 C.3   103  TYR103      0.1605
      3  C        100.6190   55.0790   73.5670 C.2   103  TYR103      0.2264
      4  O         99.8530   55.6530   72.7870 O.2   103  TYR103     -0.2867
      5  CB       101.4400   53.1710   72.2360 C.3   103  TYR103      0.0534
      6  CG       102.4420   52.6240   71.2550 C.ar  103  TYR103     -0.0201
      7  CD1      102.8560   53.3920   70.1950 C.ar  103  TYR103     -0.0009
      8  CD2      102.9700   51.3520   71.3820 C.ar  103  TYR103     -0.0009
      9  CE1      103.7350   52.9220   69.2750 C.ar  103  TYR103      0.0417
     10  CE2      103.8570   50.8560   70.4540 C.ar  103  TYR103      0.0417
     11  CZ       104.2400   51.6480   69.4080 C.ar  103  TYR103      0.1957
     12  OH       105.1420   51.1370   68.5100 O.3   103  TYR103     -0.2866
     13  N        108.7470   41.6290   73.7290 N.3   165  ASP165     -0.1239
     14  CA       109.7560   41.9230   74.7310 C.3   165  ASP165      0.1674
     15  C        109.2290   41.8220   76.1290 C.2   165  ASP165      0.2266
     16  O        110.0080   41.5430   77.0260 O.2   165  ASP165     -0.2867
     17  CB       110.3600   43.3270   74.6040 C.3   165  ASP165      0.1410
     18  CG       111.3430   43.4590   73.4490 C.2   165  ASP165      0.3668
     19  OD1      111.8400   42.4050   72.9800 O.co2 165  ASP165     -0.2456
     20  OD2      111.6350   44.6160   73.0400 O.co2 165  ASP165     -0.2456
     21  N        104.4380   42.6520   67.5160 N.3   180  VAL180     -0.1245
     22  CA       105.3020   41.6560   66.9430 C.3   180  VAL180      0.1561
     23  C        106.1320   41.0780   68.0630 C.2   180  VAL180      0.2260
     24  O        106.4800   41.7490   69.0440 O.2   180  VAL180     -0.2867
     25  CB       106.4090   42.2690   66.0930 C.3   180  VAL180      0.0252
     26  CG1      107.1790   41.1400   65.4450 C.3   180  VAL180      0.0019
     27  CG2      105.8780   43.2960   65.1060 C.3   180  VAL180      0.0019
     28  N        109.2160   37.6890   68.4960 N.3   182  TYR182     -0.1241
     29  CA       110.4030   37.0620   67.9360 C.3   182  TYR182      0.1605
     30  C        110.6190   35.6150   67.4150 C.2   182  TYR182      0.2264
     31  O        111.7150   35.3210   66.9530 O.2   182  TYR182     -0.2867
     32  CB       111.6080   37.7170   68.6490 C.3   182  TYR182      0.0534
     33  CG       111.2830   39.1680   69.0110 C.ar  182  TYR182     -0.0201
     34  CD1      111.3030   40.1940   68.0580 C.ar  182  TYR182     -0.0009
     35  CD2      110.8770   39.4970   70.3030 C.ar  182  TYR182     -0.0009
     36  CE1      110.9610   41.5160   68.4010 C.ar  182  TYR182      0.0417
     37  CE2      110.5410   40.7950   70.6530 C.ar  182  TYR182      0.0417
     38  CZ       110.5840   41.8010   69.7030 C.ar  182  TYR182      0.1957
     39  OH       110.2430   43.0790   70.0770 O.3   182  TYR182     -0.2866
     40  N        120.3650   49.6760   74.3720 N.3   311  LEU311     -0.1245
     41  CA       119.1700   48.9700   74.8200 C.3   311  LEU311      0.1561
     42  C        119.7110   47.9020   75.7590 C.2   311  LEU311      0.2260
     43  O        119.2900   47.7950   76.9060 O.2   311  LEU311     -0.2867
     44  CB       118.4080   48.3770   73.6260 C.3   311  LEU311      0.0270
     45  CG       117.0170   47.7710   73.8360 C.3   311  LEU311      0.0019
     46  CD1      116.0160   48.6570   74.6000 C.3   311  LEU311      0.0001
     47  CD2      116.6380   47.7280   72.3670 C.3   311  LEU311      0.0001
     48  N        115.1320   48.7460   81.2640 N.3   408  TRP408     -0.1241
     49  CA       115.6710   49.7270   80.3640 C.3   408  TRP408      0.1605
     50  C        114.8760   51.0130   80.3380 C.2   408  TRP408      0.2264
     51  O        115.4000   52.0830   80.0490 O.2   408  TRP408     -0.2867
     52  CB       115.9700   49.1060   79.0280 C.3   408  TRP408      0.0550
     53  CG       114.9570   48.7390   78.0340 C.ar  408  TRP408      0.0003
     54  CD1      114.8850   47.5800   77.3320 C.ar  408  TRP408      0.0946
     55  CD2      114.0590   49.6350   77.4010 C.ar  408  TRP408      0.0152
     56  NE1      113.9240   47.6620   76.3620 N.ar  408  TRP408     -0.2442
     57  CE2      113.4110   48.9280   76.3820 C.ar  408  TRP408      0.0810
     58  CE3      113.7120   50.9650   77.6240 C.ar  408  TRP408      0.0012
     59  CZ2      112.4230   49.5080   75.5850 C.ar  408  TRP408      0.0191
     60  CZ3      112.7500   51.5390   76.8580 C.ar  408  TRP408      0.0001
     61  CH2      112.1100   50.8180   75.8380 C.ar  408  TRP408      0.0015
     62  N        107.3960   55.3910   71.8870 N.3   419  PHE419     -0.1241
     63  CA       107.9830   54.8340   70.6970 C.3   419  PHE419      0.1605
     64  C        107.7500   55.4230   69.3350 C.2   419  PHE419      0.2264
     65  O        106.5880   55.4810   68.8990 O.2   419  PHE419     -0.2867
     66  CB       107.6250   53.3840   70.4300 C.3   419  PHE419      0.0534
     67  CG       107.8930   52.4370   71.5440 C.ar  419  PHE419     -0.0203
     68  CD1      106.9260   52.2530   72.5090 C.ar  419  PHE419     -0.0042
     69  CD2      109.0380   51.6680   71.5820 C.ar  419  PHE419     -0.0042
     70  CE1      107.1030   51.3610   73.5270 C.ar  419  PHE419     -0.0003
     71  CE2      109.2270   50.7720   72.6150 C.ar  419  PHE419     -0.0003
     72  CZ       108.2570   50.6210   73.5760 C.ar  419  PHE419     -0.0000
     73  N        115.8490   49.6250   67.9090 N.3   452  THR452     -0.1218
     74  CA       116.3450   48.4000   67.2570 C.3   452  THR452      0.1862
     75  C        115.6690   48.3440   65.9470 C.2   452  THR452      0.2287
     76  O        115.1070   49.2990   65.4700 O.2   452  THR452     -0.2866
     77  CB       115.5660   47.1260   67.7130 C.3   452  THR452      0.1770
     78  OG1      115.2030   47.2690   69.0840 O.3   452  THR452     -0.2211
     79  CG2      116.4290   45.8360   67.6700 C.3   452  THR452      0.0375
     80  N        113.4420   45.3020   64.1400 N.3   454  THR454     -0.1218
     81  CA       112.8210   44.0170   64.1130 C.3   454  THR454      0.1862
     82  C        112.9430   43.6350   62.6440 C.2   454  THR454      0.2287
     83  O        112.5010   44.2890   61.6840 O.2   454  THR454     -0.2866
     84  CB       111.4540   43.8740   64.7420 C.3   454  THR454      0.1770
     85  OG1      110.4530   44.4760   63.9230 O.3   454  THR454     -0.2211
     86  CG2      111.5070   44.4710   66.1190 C.3   454  THR454      0.0375
     87  N        111.0240   46.8040   61.1650 N.3   461  HIS461     -0.1241
     88  CA       110.4310   47.7030   62.1140 C.3   461  HIS461      0.1621
     89  C        111.4340   48.4800   62.9490 C.2   461  HIS461      0.2264
     90  O        111.9560   47.9620   63.9360 O.2   461  HIS461     -0.2867
     91  CB       109.5260   46.9230   63.1000 C.3   461  HIS461      0.0745
     92  CG       108.2310   46.4090   62.5400 C.ar  461  HIS461      0.0817
     93  ND1      108.0730   45.9120   61.2610 N.ar  461  HIS461     -0.2268
     94  CD2      107.0420   46.2260   63.1710 C.ar  461  HIS461      0.1154
     95  CE1      106.8150   45.5140   61.1160 C.ar  461  HIS461      0.1986
     96  NE2      106.1710   45.6800   62.2620 N.ar  461  HIS461     -0.2212
     97  N        112.2790   50.5600   65.7310 N.3   463  ILE463     -0.1245
     98  CA       111.7610   51.0950   66.9760 C.3   463  ILE463      0.1561
     99  C        112.6250   52.0680   67.7020 C.2   463  ILE463      0.2260
    100  O        113.5170   51.6600   68.4280 O.2   463  ILE463     -0.2867
    101  CB       111.3700   50.0060   67.9680 C.3   463  ILE463      0.0252
    102  CG1      110.3870   49.0460   67.2840 C.3   463  ILE463      0.0019
    103  CG2      111.0240   50.5800   69.3700 C.3   463  ILE463      0.0019
    104  CD1      109.2090   49.7140   66.5410 C.3   463  ILE463      0.0001
    105  N        113.5950   54.0620   70.6000 N.3   465  CYS465     -0.1235
    106  CA       113.2080   54.0080   72.0040 C.3   465  CYS465      0.1677
    107  C        113.4720   55.2890   72.8140 C.2   465  CYS465      0.2270
    108  O        114.5110   55.4760   73.4950 O.2   465  CYS465     -0.2867
    109  CB       113.7780   52.7510   72.6580 C.3   465  CYS465      0.0956
    110  SG       113.3570   51.2440   71.7230 S.3   465  CYS465     -0.0801
    111  N        104.3490   52.5680   61.7780 N.3   498  TYR498     -0.1227
    112  CA       103.4250   51.4390   61.6350 C.3   498  TYR498      0.1736
    113  C        102.3140   51.3170   62.7220 C.2   498  TYR498      0.2595
    114  O        101.2390   50.6830   62.5470 O.2   498  TYR498     -0.2718
    115  CB       104.2570   50.1340   61.6110 C.3   498  TYR498      0.0548
    116  CG       104.3520   49.3380   62.9270 C.ar  498  TYR498     -0.0200
    117  CD1      105.1320   49.7210   64.0150 C.ar  498  TYR498     -0.0009
    118  CD2      103.5900   48.1770   63.0600 C.ar  498  TYR498     -0.0009
    119  CE1      105.1590   48.9580   65.1620 C.ar  498  TYR498      0.0417
    120  CE2      103.6130   47.4250   64.1790 C.ar  498  TYR498      0.0417
    121  CZ       104.3900   47.8160   65.2430 C.ar  498  TYR498      0.1957
    122  OH       104.3370   46.9940   66.3560 O.3   498  TYR498     -0.2866
    123  N        102.6240   51.9520   63.8540 N.am  499  ARG499     -0.1980
    124  CA       101.7860   51.9850   65.0480 C.3   499  ARG499      0.1597
    125  C        102.3270   53.1980   65.8260 C.2   499  ARG499      0.2287
    126  O        103.4700   53.5260   65.5880 O.2   499  ARG499     -0.2864
    127  CB       102.0840   50.6870   65.7990 C.3   499  ARG499      0.0334
    128  CG       101.2970   50.4990   67.1030 C.3   499  ARG499      0.0492
    129  CD       101.6940   49.1660   67.6350 C.3   499  ARG499      0.2205
    130  NE       101.1510   48.8580   68.9410 N.pl3 499  ARG499     -0.0865
    131  CZ       101.6320   47.8520   69.6630 C.cat 499  ARG499      0.5346
    132  NH1      102.6280   47.1410   69.1510 N.pl3 499  ARG499      0.1354
    133  NH2      101.1700   47.5410   70.8730 N.pl3 499  ARG499      0.1354
@<TRIPOS>BOND
     1    95    93   ar
     2    95    96   ar
     3    87    88    1
     4    93    92   ar
     5   115   112    1
     6   115   116    1
     7   112   111    1
     8   112   113    1
     9    83    82    2
    10    88    89    1
    11    88    91    1
    12    96    94   ar
    13    92    91    1
    14    92    94   ar
    15   114   113    2
    16    82    81    1
    17   113   123   am
    18   116   118   ar
    19   116   117   ar
    20    89    90    2
    21   118   120   ar
    22   123   124    1
    23    85    84    1
    24   117   119   ar
    25    81    80    1
    26    81    84    1
    27   120   121   ar
    28    84    86    1
    29   124   127    1
    30   124   125    1
    31    27    25    1
    32   119   121   ar
    33   121   122    1
    34    26    25    1
    35    76    75    2
    36   126   125    2
    37    97    98    1
    38   127   128    1
    39    75    74    1
    40    25    22    1
    41   104   102    1
    42    22    21    1
    43    22    23    1
    44    31    30    2
    45    98    99    1
    46    98   101    1
    47   128   129    1
    48    74    77    1
    49    74    73    1
    50   102   101    1
    51    30    29    1
    52   129   130    1
    53    79    77    1
    54    99   100    2
    55    77    78    1
    56    29    28    1
    57    29    32    1
    58   101   103    1
    59    34    36   ar
    60    34    33   ar
    61    23    24    2
    62    36    38   ar
    63    12    11    1
    64    32    33    1
    65    65    64    2
    66   130   131    2
    67    33    35   ar
    68   132   131    1
    69     9    11   ar
    70     9     7   ar
    71    64    63    1
    72    11    10   ar
    73   131   133    1
    74    38    39    1
    75    38    37   ar
    76     7     6   ar
    77    35    37   ar
    78    66    63    1
    79    66    67    1
    80    10     8   ar
    81   105   106    1
    82    63    62    1
    83     6     8   ar
    84     6     5    1
    85    67    69   ar
    86    67    68   ar
    87    69    71   ar
    88   110   109    1
    89   106   109    1
    90   106   107    1
    91     5     2    1
    92    47    45    1
    93    68    70   ar
    94    71    72   ar
    95     4     3    2
    96   107   108    2
    97    19    18   ar
    98     2     3    1
    99     2     1    1
   100    20    18   ar
   101    18    17    1
   102    70    72   ar
   103    44    45    1
   104    44    41    1
   105    13    14    1
   106    45    46    1
   107    40    41    1
   108    17    14    1
   109    14    15    1
   110    41    42    1
   111    59    61   ar
   112    59    57   ar
   113    42    43    2
   114    61    60   ar
   115    15    16    2
   116    56    57   ar
   117    56    54   ar
   118    57    55   ar
   119    60    58   ar
   120    54    53   ar
   121    55    58   ar
   122    55    53   ar
   123    53    52    1
   124    52    49    1
   125    51    50    2
   126    50    49    1
   127    49    48    1
