@<TRIPOS>MOLECULE
tmp/2vapA00.pdb
 170 160 0 0 0
SMALL
GASTEIGER

@<TRIPOS>ATOM
      1  N         30.1230  -20.2770   10.9180 N.3    26  CYS26      -0.1221
      2  CA        29.1520  -20.2890    9.8250 C.3    26  CYS26       0.1808
      3  C         29.3030  -19.0770    8.9090 C.2    26  CYS26       0.2602
      4  O         29.3480  -17.9380    9.3760 O.2    26  CYS26      -0.2717
      5  CB        27.7290  -20.3360   10.3890 C.3    26  CYS26       0.0970
      6  SG        27.4580  -21.5910   11.6630 S.3    26  CYS26      -0.0800
      7  N         29.3760  -19.3300    7.6040 N.am   27  GLY27      -0.1942
      8  CA        29.4680  -18.2580    6.6130 C.3    27  GLY27       0.2014
      9  C         30.8660  -17.6890    6.4640 C.2    27  GLY27       0.2639
     10  O         31.8200  -18.2120    7.0380 O.2    27  GLY27      -0.2714
     11  N         30.9780  -16.6090    5.6920 N.am   28  GLY28      -0.1939
     12  CA        32.2660  -15.9820    5.3920 C.3    28  GLY28       0.2014
     13  C         33.0670  -15.5840    6.6170 C.2    28  GLY28       0.2639
     14  O         34.1880  -16.0600    6.8150 O.2    28  GLY28      -0.2714
     15  N         32.4830  -14.7170    7.4420 N.am   29  ALA29      -0.1963
     16  CA        33.1330  -14.2350    8.6640 C.3    29  ALA29       0.1728
     17  C         33.4100  -15.3600    9.6600 C.2    29  ALA29       0.2616
     18  O         34.4800  -15.4050   10.2700 O.2    29  ALA29      -0.2715
     19  CB        32.3000  -13.1380    9.3110 C.3    29  ALA29       0.0334
     20  N         32.4450  -16.2660    9.8130 N.am   30  GLY30      -0.1955
     21  CA        32.5930  -17.4330   10.6820 C.3    30  GLY30       0.1869
     22  C         33.7280  -18.3490   10.2590 C.2    30  GLY30       0.2309
     23  O         34.4800  -18.8430   11.1010 O.2    30  GLY30      -0.2863
     24  N         36.3610  -17.4050    8.4570 N.3    32  ASN32      -0.1240
     25  CA        37.5690  -16.6260    8.7260 C.3    32  ASN32       0.1653
     26  C         38.0050  -16.7540   10.1840 C.2    32  ASN32       0.2266
     27  O         39.1980  -16.8780   10.4750 O.2    32  ASN32      -0.2867
     28  CB        37.3500  -15.1540    8.3580 C.3    32  ASN32       0.1155
     29  CG        38.6390  -14.3500    8.3540 C.2    32  ASN32       0.2627
     30  OD1       39.6270  -14.7330    7.7260 O.2    32  ASN32      -0.2716
     31  ND2       38.6290  -13.2210    9.0510 N.am   32  ASN32      -0.0877
     32  N         34.8320  -19.9660   -0.5050 N.3    56  GLN56      -0.1245
     33  CA        35.2070  -19.5440    0.8450 C.3    56  GLN56       0.1566
     34  C         35.5710  -20.7360    1.7320 C.2    56  GLN56       0.2260
     35  O         36.5240  -20.6680    2.5100 O.2    56  GLN56      -0.2867
     36  CB        34.0830  -18.7240    1.4930 C.3    56  GLN56       0.0367
     37  CG        33.7690  -17.4060    0.7810 C.3    56  GLN56       0.0905
     38  CD        32.7070  -16.5670    1.4870 C.2    56  GLN56       0.2608
     39  OE1       32.6980  -15.3420    1.3700 O.2    56  GLN56      -0.2717
     40  NE2       31.8100  -17.2220    2.2150 N.am   56  GLN56      -0.0878
     41  N         24.9490  -17.8810   -0.7140 N.3    78  ALA78      -0.1231
     42  CA        23.5730  -17.5630   -0.3230 C.3    78  ALA78       0.1694
     43  C         23.1460  -16.1480   -0.7240 C.2    78  ALA78       0.2593
     44  O         21.9720  -15.7890   -0.5960 O.2    78  ALA78      -0.2718
     45  CB        23.3810  -17.7800    1.1780 C.3    78  ALA78       0.0304
     46  N         24.1050  -15.3540   -1.1980 N.am   79  GLY79      -0.1942
     47  CA        23.8490  -13.9960   -1.6860 C.3    79  GLY79       0.2014
     48  C         23.2100  -13.0410   -0.6920 C.2    79  GLY79       0.2639
     49  O         22.4580  -12.1450   -1.0830 O.2    79  GLY79      -0.2714
     50  N         23.5050  -13.2370    0.5910 N.am   80  GLY80      -0.1954
     51  CA        22.9920  -12.3670    1.6470 C.3    80  GLY80       0.1869
     52  C         21.5690  -12.6540    2.0980 C.2    80  GLY80       0.2309
     53  O         21.0100  -11.9010    2.8960 O.2    80  GLY80      -0.2863
     54  N         29.3450  -13.7750   11.7440 N.3   111  GLY111     -0.1210
     55  CA        28.9200  -12.3900   11.6390 C.3   111  GLY111      0.1956
     56  C         27.4790  -12.3880   11.1730 C.2   111  GLY111      0.2612
     57  O         27.1810  -12.8600   10.0750 O.2   111  GLY111     -0.2717
     58  N         26.5780  -11.8880   12.0130 N.am  112  LEU112     -0.1965
     59  CA        25.1700  -11.7940   11.6370 C.3   112  LEU112      0.1728
     60  C         24.9660  -10.6370   10.6680 C.2   112  LEU112      0.2617
     61  O         25.6570   -9.6200   10.7500 O.2   112  LEU112     -0.2715
     62  CB        24.2710  -11.6340   12.8670 C.3   112  LEU112      0.0311
     63  CG        24.1420  -12.8120   13.8390 C.3   112  LEU112      0.0022
     64  CD1       23.3800  -12.3770   15.0760 C.3   112  LEU112      0.0001
     65  CD2       23.4640  -14.0190   13.1930 C.3   112  LEU112      0.0001
     66  N         24.0250  -10.8070    9.7440 N.am  113  GLY113     -0.1940
     67  CA        23.7370   -9.7840    8.7430 C.3   113  GLY113      0.2014
     68  C         23.7610  -10.3010    7.3180 C.2   113  GLY113      0.2639
     69  O         23.0960   -9.7460    6.4430 O.2   113  GLY113     -0.2714
     70  N         24.5360  -11.3590    7.0840 N.am  114  GLY114     -0.1939
     71  CA        24.6300  -11.9760    5.7630 C.3   114  GLY114      0.2014
     72  C         23.5580  -13.0250    5.5420 C.2   114  GLY114      0.2639
     73  O         22.5010  -12.9860    6.1720 O.2   114  GLY114     -0.2714
     74  N         23.8340  -13.9640    4.6430 N.am  115  GLY115     -0.1939
     75  CA        22.8800  -15.0200    4.3150 C.3   115  GLY115      0.2014
     76  C         23.1710  -16.3310    5.0150 C.2   115  GLY115      0.2640
     77  O         22.3140  -16.8720    5.7180 O.2   115  GLY115     -0.2714
     78  N         24.3850  -16.8380    4.8220 N.am  116  THR116     -0.1936
     79  CA        24.7820  -18.1390    5.3590 C.3   116  THR116      0.2028
     80  C         24.8330  -18.1390    6.8880 C.2   116  THR116      0.2642
     81  O         24.1930  -18.9720    7.5290 O.2   116  THR116     -0.2714
     82  CB        26.1330  -18.6060    4.7680 C.3   116  THR116      0.1808
     83  OG1       26.0560  -18.5910    3.3370 O.3   116  THR116     -0.2208
     84  CG2       26.4750  -20.0200    5.2320 C.3   116  THR116      0.0379
     85  N         25.5820  -17.2000    7.4610 N.am  117  GLY117     -0.1954
     86  CA        25.7180  -17.0910    8.9130 C.3   117  GLY117      0.1869
     87  C         24.3880  -16.8770    9.6110 C.2   117  GLY117      0.2309
     88  O         24.0030  -17.6620   10.4780 O.2   117  GLY117     -0.2863
     89  N         28.5550  -11.3980   16.0130 N.3   140  THR140     -0.1203
     90  CA        28.6230   -9.9500   15.8490 C.3   140  THR140      0.1994
     91  C         27.3800   -9.4020   15.1610 C.2   140  THR140      0.2618
     92  O         26.7390  -10.0950   14.3670 O.2   140  THR140     -0.2717
     93  CB        29.8630   -9.4990   15.0400 C.3   140  THR140      0.1784
     94  OG1       29.8090  -10.0520   13.7190 O.3   140  THR140     -0.2211
     95  CG2       31.1500   -9.9320   15.7260 C.3   140  THR140      0.0376
     96  N         27.0450   -8.1580   15.4860 N.am  141  LEU141     -0.1966
     97  CA        26.0630   -7.3940   14.7290 C.3   141  LEU141      0.1713
     98  C         26.8260   -6.4430   13.8070 C.2   141  LEU141      0.2458
     99  O         27.9000   -5.9680   14.1750 O.2   141  LEU141     -0.2730
    100  CB        25.1350   -6.6150   15.6650 C.3   141  LEU141      0.0310
    101  CG        24.1900   -7.4150   16.5690 C.3   141  LEU141      0.0022
    102  CD1       23.4780   -6.4820   17.5310 C.3   141  LEU141      0.0001
    103  CD2       23.1790   -8.2310   15.7650 C.3   141  LEU141      0.0001
    104  N         26.2820   -6.1690   12.6060 N.am  142  PRO142     -0.2727
    105  CA        27.0050   -5.3850   11.5990 C.3   142  PRO142      0.1402
    106  C         27.2300   -3.9190   11.9810 C.2   142  PRO142      0.2269
    107  O         26.5570   -3.3960   12.8730 O.2   142  PRO142     -0.2865
    108  CB        26.0930   -5.4730   10.3690 C.3   142  PRO142      0.0296
    109  CG        24.7420   -5.7240   10.9160 C.3   142  PRO142      0.0237
    110  CD        24.9540   -6.5870   12.1200 C.3   142  PRO142      0.0939
    111  N         26.9310   -0.5340    7.0190 N.3   146  GLU146     -0.1245
    112  CA        26.5640   -1.6830    6.1870 C.3   146  GLU146      0.1567
    113  C         25.1160   -1.6050    5.6990 C.2   146  GLU146      0.2260
    114  O         24.7410   -2.2920    4.7470 O.2   146  GLU146     -0.2867
    115  CB        26.8030   -2.9980    6.9310 C.3   146  GLU146      0.0388
    116  CG        28.2590   -3.2660    7.2760 C.3   146  GLU146      0.1160
    117  CD        28.4790   -4.6730    7.7860 C.2   146  GLU146      0.3649
    118  OE1       28.1050   -5.6250    7.0680 O.co2 146  GLU146     -0.2457
    119  OE2       29.0260   -4.8270    8.8990 O.co2 146  GLU146     -0.2457
    120  N         20.9960   -5.1600    6.2640 N.3   150  ARG150     -0.1245
    121  CA        21.9560   -6.0050    6.9800 C.3   150  ARG150      0.1563
    122  C         21.6320   -6.1020    8.4710 C.2   150  ARG150      0.2260
    123  O         21.6490   -7.1940    9.0400 O.2   150  ARG150     -0.2867
    124  CB        23.3860   -5.4910    6.7750 C.3   150  ARG150      0.0307
    125  CG        23.9920   -5.8290    5.4160 C.3   150  ARG150      0.0489
    126  CD        24.8260   -7.1020    5.4700 C.3   150  ARG150      0.2205
    127  NE        25.0600   -7.6600    4.1400 N.pl3 150  ARG150     -0.0865
    128  CZ        25.8910   -8.6650    3.8740 C.cat 150  ARG150      0.5346
    129  NH1       26.5940   -9.2380    4.8440 N.pl3 150  ARG150      0.1354
    130  NH2       26.0260   -9.0970    2.6280 N.pl3 150  ARG150      0.1354
    131  N         29.5320   -4.6810   16.4030 N.3   173  ASN173     -0.1240
    132  CA        30.6720   -4.1460   15.6500 C.3   173  ASN173      0.1653
    133  C         30.7310   -2.6190   15.6290 C.2   173  ASN173      0.2266
    134  O         31.8150   -2.0430   15.6060 O.2   173  ASN173     -0.2867
    135  CB        30.7000   -4.6850   14.2130 C.3   173  ASN173      0.1155
    136  CG        31.2660   -6.0990   14.1140 C.2   173  ASN173      0.2627
    137  OD1       31.1320   -6.7550   13.0790 O.2   173  ASN173     -0.2716
    138  ND2       31.9060   -6.5690   15.1790 N.am  173  ASN173     -0.0877
    139  N         37.0410   -4.4890    9.8510 N.3   189  PHE189     -0.1241
    140  CA        36.7280   -5.9200    9.8500 C.3   189  PHE189      0.1605
    141  C         37.8700   -6.7580   10.4270 C.2   189  PHE189      0.2264
    142  O         37.6300   -7.8020   11.0370 O.2   189  PHE189     -0.2867
    143  CB        36.3800   -6.4130    8.4410 C.3   189  PHE189      0.0534
    144  CG        34.9950   -6.0360    7.9840 C.ar  189  PHE189     -0.0203
    145  CD1       33.8840   -6.2950    8.7830 C.ar  189  PHE189     -0.0042
    146  CD2       34.8000   -5.4480    6.7390 C.ar  189  PHE189     -0.0042
    147  CE1       32.6030   -5.9540    8.3570 C.ar  189  PHE189     -0.0003
    148  CE2       33.5210   -5.1060    6.3020 C.ar  189  PHE189     -0.0003
    149  CZ        32.4220   -5.3590    7.1140 C.ar  189  PHE189     -0.0000
    150  N         37.5220   -6.4450   14.0420 N.3   192  ALA192     -0.1231
    151  CA        36.4180   -7.3440   14.3810 C.3   192  ALA192      0.1694
    152  C         36.8790   -8.8010   14.4500 C.2   192  ALA192      0.2592
    153  O         36.4070   -9.5660   15.2950 O.2   192  ALA192     -0.2718
    154  CB        35.2760   -7.1880   13.3850 C.3   192  ALA192      0.0304
    155  N         37.8040   -9.1680   13.5610 N.am  193  ASP193     -0.1974
    156  CA        38.4300  -10.4920   13.5740 C.3   193  ASP193      0.1709
    157  C         39.1170  -10.7680   14.9060 C.2   193  ASP193      0.2293
    158  O         38.8850  -11.8070   15.5260 O.2   193  ASP193     -0.2864
    159  CB        39.4590  -10.6210   12.4460 C.3   193  ASP193      0.1436
    160  CG        38.8250  -10.7010   11.0710 C.2   193  ASP193      0.3671
    161  OD1       37.6240  -11.0240   10.9730 O.co2 193  ASP193     -0.2456
    162  OD2       39.5440  -10.4500   10.0810 O.co2 193  ASP193     -0.2456
    163  N         36.6110  -11.1480   17.8590 N.3   196  LEU196     -0.1245
    164  CA        35.9650  -12.4610   17.7780 C.3   196  LEU196      0.1561
    165  C         36.8930  -13.5830   18.2410 C.2   196  LEU196      0.2260
    166  O         36.4730  -14.4710   18.9860 O.2   196  LEU196     -0.2867
    167  CB        35.4670  -12.7420   16.3570 C.3   196  LEU196      0.0270
    168  CG        34.0640  -12.2680   15.9760 C.3   196  LEU196      0.0019
    169  CD1       33.8890  -12.2950   14.4630 C.3   196  LEU196      0.0001
    170  CD2       32.9860  -13.1080   16.6610 C.3   196  LEU196      0.0001
@<TRIPOS>BOND
     1    47    46    1
     2    47    48    1
     3    46    43   am
     4    49    48    2
     5    43    44    2
     6    43    42    1
     7    41    42    1
     8    48    50   am
     9    32    33    1
    10    42    45    1
    11    50    51    1
    12    37    38    1
    13    37    36    1
    14    33    36    1
    15    33    34    1
    16    39    38    2
    17    38    40   am
    18    51    52    1
    19    34    35    2
    20    52    53    2
    21   130   128    1
    22    83    82    1
    23   128   127    2
    24   128   129    1
    25   127   126    1
    26    75    74    1
    27    75    76    1
    28    74    72   am
    29   114   113    2
    30    82    84    1
    31    82    79    1
    32    78    76   am
    33    78    79    1
    34    76    77    2
    35    79    80    1
    36    12    11    1
    37    12    13    1
    38   125   126    1
    39   125   124    1
    40    72    71    1
    41    72    73    2
    42    11     9   am
    43   113   112    1
    44    71    70    1
    45   112   115    1
    46   112   111    1
    47   120   121    1
    48   148   146   ar
    49   148   149   ar
    50    69    68    2
    51     9     8    1
    52     9    10    2
    53     8     7    1
    54    13    14    2
    55    13    15   am
    56   146   144   ar
    57   124   121    1
    58    80    85   am
    59    80    81    2
    60   115   116    1
    61   121   122    1
    62   118   117   ar
    63    70    68   am
    64   149   147   ar
    65   116   117    1
    66    68    67    1
    67    15    16    1
    68    85    86    1
    69     7     3   am
    70    30    29    2
    71   117   119   ar
    72   144   143    1
    73   144   145   ar
    74    29    28    1
    75    29    31   am
    76   147   145   ar
    77    28    25    1
    78   143   140    1
    79    24    25    1
    80   122   123    2
    81    16    19    1
    82    16    17    1
    83    25    26    1
    84    67    66    1
    85     3     4    2
    86     3     2    1
    87    86    87    1
    88    87    88    2
    89    17    20   am
    90    17    18    2
    91    66    60   am
    92    20    21    1
    93     2     5    1
    94     2     1    1
    95   140   139    1
    96   140   141    1
    97    57    56    2
    98   162   160   ar
    99    26    27    2
   100    22    21    1
   101    22    23    2
   102   108   109    1
   103   108   105    1
   104     5     6    1
   105   141   142    2
   106    60    61    2
   107    60    59    1
   108   109   110    1
   109   161   160   ar
   110   160   159    1
   111    56    55    1
   112    56    58   am
   113   105   106    1
   114   105   104    1
   115    59    58    1
   116    59    62    1
   117    55    54    1
   118   106   107    2
   119   110   104    1
   120   159   156    1
   121   104    98   am
   122    62    63    1
   123   137   136    2
   124    65    63    1
   125   154   151    1
   126   155   156    1
   127   155   152   am
   128   156   157    1
   129    94    93    1
   130    98    99    2
   131    98    97    1
   132    63    64    1
   133   150   151    1
   134   136   135    1
   135   136   138   am
   136   135   132    1
   137    92    91    2
   138   151   152    1
   139   152   153    2
   140   169   168    1
   141    97    96    1
   142    97   100    1
   143   157   158    2
   144    93    95    1
   145    93    90    1
   146    91    96   am
   147    91    90    1
   148   134   133    2
   149   133   132    1
   150   132   131    1
   151   100   101    1
   152   103   101    1
   153    90    89    1
   154   168   167    1
   155   168   170    1
   156   167   164    1
   157   101   102    1
   158   164   163    1
   159   164   165    1
   160   165   166    2
