@<TRIPOS>MOLECULE
tmp/2varB01.pdb
 200 188 0 0 0
SMALL
GASTEIGER

@<TRIPOS>ATOM
      1  N        -42.0750  -15.7090   13.9400 N.3    99  MET99      -0.1230
      2  CA       -43.2970  -15.5410   14.7490 C.3    99  MET99       0.1702
      3  C        -43.0870  -14.9260   16.1540 C.2    99  MET99       0.2592
      4  O        -43.9600  -15.0280   17.0120 O.2    99  MET99      -0.2718
      5  CB       -44.1320  -16.8350   14.7720 C.3    99  MET99       0.0401
      6  CG       -44.2970  -17.4410   13.3710 C.3    99  MET99       0.0596
      7  SD       -44.7790  -19.1670   13.4110 S.3    99  MET99      -0.1393
      8  CE       -43.3820  -19.9770   14.1480 C.3    99  MET99       0.0692
      9  N        -41.9260  -14.3060   16.3760 N.am  100  LYS100     -0.1980
     10  CA       -41.6950  -13.4600   17.5560 C.3   100  LYS100      0.1596
     11  C        -41.2700  -12.0510   17.1050 C.2   100  LYS100      0.2287
     12  O        -40.9230  -11.8360   15.9170 O.2   100  LYS100     -0.2864
     13  CB       -40.6190  -14.0460   18.4790 C.3   100  LYS100      0.0298
     14  CG       -40.9420  -15.3900   19.1190 C.3   100  LYS100      0.0038
     15  CD       -41.3700  -15.2620   20.5570 C.3   100  LYS100      0.0206
     16  CE       -41.4380  -16.6540   21.2560 C.3   100  LYS100      0.1093
     17  NZ       -42.4630  -17.4830   20.5380 N.3   100  LYS100     -0.1314
     18  N        -48.9120   -7.5840   36.4270 N.3   161  ASP161     -0.1239
     19  CA       -48.2750   -8.4470   35.4420 C.3   161  ASP161      0.1674
     20  C        -46.7760   -8.1460   35.6460 C.2   161  ASP161      0.2266
     21  O        -46.3580   -6.9740   35.6230 O.2   161  ASP161     -0.2867
     22  CB       -48.7460   -8.0730   34.0440 C.3   161  ASP161      0.1410
     23  CG       -48.1670   -8.9450   32.9630 C.2   161  ASP161      0.3668
     24  OD1      -48.8220   -9.0780   31.9310 O.co2 161  ASP161     -0.2456
     25  OD2      -47.0840   -9.5110   33.1200 O.co2 161  ASP161     -0.2456
     26  N        -44.1760   -8.7220   33.7280 N.3   163  ASN163     -0.1240
     27  CA       -43.6850   -8.0690   32.5330 C.3   163  ASN163      0.1653
     28  C        -42.2340   -7.5490   32.6330 C.2   163  ASN163      0.2266
     29  O        -41.9850   -6.3250   32.4840 O.2   163  ASN163     -0.2867
     30  CB       -44.6150   -6.9070   32.1460 C.3   163  ASN163      0.1155
     31  CG       -45.4350   -7.2090   30.9270 C.2   163  ASN163      0.2627
     32  OD1      -45.0510   -8.0710   30.1180 O.2   163  ASN163     -0.2716
     33  ND2      -46.5940   -6.5180   30.7740 N.am  163  ASN163     -0.0877
     34  N        -38.9440   -6.6370   31.1600 N.3   165  ARG165     -0.1245
     35  CA       -38.2770   -6.3160   29.9290 C.3   165  ARG165      0.1563
     36  C        -36.8700   -5.9770   30.3330 C.2   165  ARG165      0.2260
     37  O        -36.6480   -4.8960   30.8920 O.2   165  ARG165     -0.2867
     38  CB       -38.9140   -5.0780   29.3060 C.3   165  ARG165      0.0307
     39  CG       -40.4320   -5.1400   29.2010 C.3   165  ARG165      0.0489
     40  CD       -40.8930   -5.8730   27.9380 C.3   165  ARG165      0.2205
     41  NE       -42.3330   -6.0180   27.9970 N.pl3 165  ARG165     -0.0865
     42  CZ       -43.1060   -6.4730   27.0230 C.cat 165  ARG165      0.5346
     43  NH1      -42.5900   -6.8390   25.8490 N.pl3 165  ARG165      0.1354
     44  NH2      -44.4020   -6.5590   27.2360 N.pl3 165  ARG165      0.1354
     45  N        -44.9770  -15.5050   33.9170 N.3   194  ASP194     -0.1239
     46  CA       -44.5930  -16.6140   33.0550 C.3   194  ASP194      0.1674
     47  C        -43.2850  -17.1870   33.5660 C.2   194  ASP194      0.2266
     48  O        -42.7350  -16.6470   34.5200 O.2   194  ASP194     -0.2867
     49  CB       -44.4300  -16.1360   31.6180 C.3   194  ASP194      0.1410
     50  CG       -43.5930  -14.8480   31.5270 C.2   194  ASP194      0.3668
     51  OD1      -44.0540  -13.9080   30.8630 O.co2 194  ASP194     -0.2456
     52  OD2      -42.5050  -14.7720   32.1320 O.co2 194  ASP194     -0.2456
     53  N        -48.5860  -17.7450   32.0750 N.3   225  LYS225     -0.1231
     54  CA       -48.6250  -17.7280   30.6130 C.3   225  LYS225      0.1693
     55  C        -47.5560  -18.6200   30.0290 C.2   225  LYS225      0.2592
     56  O        -46.4000  -18.6140   30.4750 O.2   225  LYS225     -0.2718
     57  CB       -48.4350  -16.2970   30.1290 C.3   225  LYS225      0.0285
     58  CG       -49.5850  -15.3860   30.5460 C.3   225  LYS225      0.0035
     59  CD       -49.4220  -13.9640   30.0600 C.3   225  LYS225      0.0206
     60  CE       -48.3110  -13.2490   30.7660 C.3   225  LYS225      0.1093
     61  NZ       -47.1370  -13.1100   29.9130 N.3   225  LYS225     -0.1314
     62  N        -47.9240  -19.4020   29.0340 N.am  226  LEU226     -0.1966
     63  CA       -46.9250  -20.2940   28.4440 C.3   226  LEU226      0.1728
     64  C        -46.7460  -20.0820   26.9390 C.2   226  LEU226      0.2617
     65  O        -46.2390  -20.9680   26.2430 O.2   226  LEU226     -0.2715
     66  CB       -47.2550  -21.7670   28.7890 C.3   226  LEU226      0.0311
     67  CG       -47.4890  -22.1700   30.2670 C.3   226  LEU226      0.0022
     68  CD1      -48.1700  -23.5370   30.3120 C.3   226  LEU226      0.0001
     69  CD2      -46.1650  -22.1840   31.0790 C.3   226  LEU226      0.0001
     70  N        -47.1490  -18.9150   26.4340 N.am  227  GLY227     -0.1940
     71  CA       -47.0140  -18.6150   25.0020 C.3   227  GLY227      0.2014
     72  C        -47.7040  -19.6420   24.1060 C.2   227  GLY227      0.2639
     73  O        -48.9100  -19.9090   24.2720 O.2   227  GLY227     -0.2714
     74  N        -46.9560  -20.2500   23.1790 N.am  228  SER228     -0.1949
     75  CA       -47.5790  -21.1770   22.2080 C.3   228  SER228      0.1924
     76  C        -48.0260  -22.4850   22.8660 C.2   228  SER228      0.2314
     77  O        -48.6210  -23.3310   22.2110 O.2   228  SER228     -0.2863
     78  CB       -46.6640  -21.4690   21.0120 C.3   228  SER228      0.2116
     79  OG       -45.4810  -22.0870   21.4600 O.3   228  SER228     -0.2180
     80  N        -50.0390  -22.3280   25.6080 N.3   230  GLY230     -0.1210
     81  CA       -51.2740  -22.0060   26.3040 C.3   230  GLY230      0.1956
     82  C        -51.0150  -21.2920   27.6150 C.2   230  GLY230      0.2611
     83  O        -50.0430  -20.5560   27.7390 O.2   230  GLY230     -0.2717
     84  N        -51.8950  -21.4820   28.5920 N.am  231  ALA231     -0.1979
     85  CA       -51.7400  -20.8550   29.9110 C.3   231  ALA231      0.1597
     86  C        -52.4250  -21.7000   31.0100 C.2   231  ALA231      0.2287
     87  O        -53.3610  -22.4430   30.7360 O.2   231  ALA231     -0.2864
     88  CB       -52.3100  -19.4140   29.9130 C.3   231  ALA231      0.0319
     89  N        -52.9400  -23.2880   23.7560 N.3   244  ALA244     -0.1231
     90  CA       -52.9930  -22.2070   22.7830 C.3   244  ALA244      0.1694
     91  C        -53.6700  -22.7850   21.5410 C.2   244  ALA244      0.2592
     92  O        -53.6910  -24.0160   21.3510 O.2   244  ALA244     -0.2718
     93  CB       -51.5740  -21.7550   22.4450 C.3   244  ALA244      0.0304
     94  N        -54.2240  -21.9120   20.7100 N.am  245  TYR245     -0.1962
     95  CA       -54.7090  -22.2900   19.3920 C.3   245  TYR245      0.1771
     96  C        -53.6860  -21.9930   18.3140 C.2   245  TYR245      0.2619
     97  O        -53.0210  -20.9390   18.3520 O.2   245  TYR245     -0.2715
     98  CB       -55.9430  -21.5230   19.0400 C.3   245  TYR245      0.0574
     99  CG       -57.1680  -21.8650   19.8290 C.ar  245  TYR245     -0.0198
    100  CD1      -57.3990  -21.2450   21.0650 C.ar  245  TYR245     -0.0009
    101  CD2      -58.1290  -22.7800   19.3390 C.ar  245  TYR245     -0.0009
    102  CE1      -58.5500  -21.5040   21.7860 C.ar  245  TYR245      0.0417
    103  CE2      -59.2950  -23.0580   20.0750 C.ar  245  TYR245      0.0417
    104  CZ       -59.4850  -22.4120   21.3050 C.ar  245  TYR245      0.1957
    105  OH       -60.6000  -22.6130   22.0670 O.3   245  TYR245     -0.2866
    106  N        -53.6080  -22.8870   17.3280 N.am  246  LYS246     -0.1963
    107  CA       -52.7750  -22.6990   16.1290 C.3   246  LYS246      0.1728
    108  C        -53.3920  -21.7030   15.1330 C.2   246  LYS246      0.2616
    109  O        -54.4030  -21.9870   14.4720 O.2   246  LYS246     -0.2715
    110  CB       -52.5090  -24.0480   15.4380 C.3   246  LYS246      0.0311
    111  CG       -51.2000  -24.0710   14.6390 C.3   246  LYS246      0.0038
    112  CD       -50.0920  -24.8460   15.4170 C.3   246  LYS246      0.0206
    113  CE       -48.7630  -24.9450   14.6160 C.3   246  LYS246      0.1093
    114  NZ       -48.9820  -25.3960   13.1890 N.3   246  LYS246     -0.1314
    115  N        -52.7870  -20.5190   15.0440 N.am  247  VAL247     -0.1977
    116  CA       -53.2130  -19.4800   14.0880 C.3   247  VAL247      0.1596
    117  C        -51.9600  -18.9020   13.4350 C.2   247  VAL247      0.2287
    118  O        -50.8690  -19.0670   13.9740 O.2   247  VAL247     -0.2864
    119  CB       -54.0340  -18.3430   14.7710 C.3   247  VAL247      0.0276
    120  CG1      -55.4620  -18.8130   15.1290 C.3   247  VAL247      0.0022
    121  CG2      -53.2700  -17.7160   15.9840 C.3   247  VAL247      0.0022
    122  N        -49.2980  -16.3030   13.0100 N.3   249  VAL249     -0.1245
    123  CA       -48.8330  -15.2400   13.8610 C.3   249  VAL249      0.1561
    124  C        -48.2520  -14.0940   13.0250 C.2   249  VAL249      0.2260
    125  O        -47.2590  -14.2500   12.3280 O.2   249  VAL249     -0.2867
    126  CB       -47.7920  -15.7950   14.8890 C.3   249  VAL249      0.0252
    127  CG1      -47.1870  -14.6720   15.7520 C.3   249  VAL249      0.0019
    128  CG2      -48.4460  -16.8520   15.7570 C.3   249  VAL249      0.0019
    129  N        -46.9160  -11.2390   18.0620 N.3   252  PRO252     -0.2102
    130  CA       -47.4990  -11.5660   19.3680 C.3   252  PRO252      0.1504
    131  C        -47.4400  -10.4300   20.4260 C.2   252  PRO252      0.2576
    132  O        -47.9060  -10.6060   21.5830 O.2   252  PRO252     -0.2718
    133  CB       -46.6710  -12.7670   19.8090 C.3   252  PRO252      0.0282
    134  CG       -45.3050  -12.4880   19.2060 C.3   252  PRO252      0.0208
    135  CD       -45.5450  -11.7610   17.9010 C.3   252  PRO252      0.0893
    136  N        -46.9200   -9.2660   20.0470 N.am  253  THR253     -0.1939
    137  CA       -46.7620   -8.1500   20.9990 C.3   253  THR253      0.2028
    138  C        -48.1360   -7.7580   21.5900 C.2   253  THR253      0.2643
    139  O        -49.0940   -7.5750   20.8490 O.2   253  THR253     -0.2714
    140  CB       -46.0880   -6.9330   20.3200 C.3   253  THR253      0.1808
    141  OG1      -44.8290   -7.3230   19.7930 O.3   253  THR253     -0.2208
    142  CG2      -45.8740   -5.7800   21.3380 C.3   253  THR253      0.0379
    143  N        -48.2400   -7.6520   22.9170 N.am  254  GLY254     -0.1939
    144  CA       -49.5300   -7.3150   23.5520 C.3   254  GLY254      0.2014
    145  C        -50.4440   -8.5020   23.8530 C.2   254  GLY254      0.2639
    146  O        -51.4970   -8.3320   24.4680 O.2   254  GLY254     -0.2714
    147  N        -50.0540   -9.7040   23.4280 N.am  255  ALA255     -0.1963
    148  CA       -50.8820  -10.8940   23.6240 C.3   255  ALA255      0.1728
    149  C        -51.1510  -11.1200   25.1280 C.2   255  ALA255      0.2617
    150  O        -52.2950  -11.4010   25.5140 O.2   255  ALA255     -0.2715
    151  CB       -50.2080  -12.1420   22.9980 C.3   255  ALA255      0.0334
    152  N        -50.0980  -10.9770   25.9350 N.am  256  GLY256     -0.1940
    153  CA       -50.1750  -11.1180   27.3800 C.3   256  GLY256      0.2014
    154  C        -51.1170  -10.1010   27.9760 C.2   256  GLY256      0.2638
    155  O        -51.8640  -10.4320   28.8840 O.2   256  GLY256     -0.2714
    156  N        -51.1250   -8.8640   27.4520 N.am  257  ASP257     -0.1971
    157  CA       -51.9980   -7.8200   28.0090 C.3   257  ASP257      0.1709
    158  C        -53.4430   -8.0830   27.6950 C.2   257  ASP257      0.2293
    159  O        -54.3200   -7.8010   28.5120 O.2   257  ASP257     -0.2864
    160  CB       -51.6260   -6.4230   27.4780 C.3   257  ASP257      0.1436
    161  CG       -50.1340   -6.1240   27.6300 C.2   257  ASP257      0.3671
    162  OD1      -49.5170   -6.4910   28.6360 O.co2 257  ASP257     -0.2456
    163  OD2      -49.5590   -5.5760   26.7060 O.co2 257  ASP257     -0.2456
    164  N        -54.8080  -11.0620   27.2610 N.3   259  MET259     -0.1245
    165  CA       -55.1460  -12.1490   28.1620 C.3   259  MET259      0.1570
    166  C        -55.3660  -11.6300   29.6080 C.2   259  MET259      0.2261
    167  O        -56.3870  -11.9410   30.2340 O.2   259  MET259     -0.2867
    168  CB       -54.0130  -13.1680   28.1350 C.3   259  MET259      0.0387
    169  CG       -54.1660  -14.2590   29.1860 C.3   259  MET259      0.0595
    170  SD       -52.9500  -15.5570   29.0480 S.3   259  MET259     -0.1393
    171  CE       -53.6740  -16.4720   27.6980 C.3   259  MET259      0.0692
    172  N        -57.3050  -16.6630   26.5740 N.3   281  ILE281     -0.1245
    173  CA       -56.6750  -17.3730   25.4760 C.3   281  ILE281      0.1561
    174  C        -57.2980  -16.9360   24.1640 C.2   281  ILE281      0.2260
    175  O        -56.6090  -16.8040   23.1480 O.2   281  ILE281     -0.2867
    176  CB       -56.8550  -18.9440   25.6220 C.3   281  ILE281      0.0252
    177  CG1      -56.0670  -19.4660   26.8050 C.3   281  ILE281      0.0019
    178  CG2      -56.4810  -19.6930   24.2880 C.3   281  ILE281      0.0019
    179  CD1      -54.5950  -19.6770   26.5460 C.3   281  ILE281      0.0001
    180  N        -56.0080  -13.3810   23.3450 N.3   284  SER284     -0.1202
    181  CA       -54.6340  -13.4590   22.8820 C.3   284  SER284      0.2020
    182  C        -54.4830  -14.0500   21.4630 C.2   284  SER284      0.2619
    183  O        -53.6100  -13.6210   20.7070 O.2   284  SER284     -0.2717
    184  CB       -53.8440  -14.3390   23.8160 C.3   284  SER284      0.2103
    185  OG       -53.5320  -13.6600   25.0210 O.3   284  SER284     -0.2182
    186  N        -55.2760  -15.0810   21.1490 N.am  285  THR285     -0.1952
    187  CA       -55.2610  -15.7440   19.8280 C.3   285  THR285      0.1897
    188  C        -55.6070  -14.7600   18.7320 C.2   285  THR285      0.2313
    189  O        -54.9520  -14.7590   17.6740 O.2   285  THR285     -0.2863
    190  CB       -56.2850  -16.9390   19.8060 C.3   285  THR285      0.1794
    191  OG1      -55.9880  -17.8250   20.8920 O.3   285  THR285     -0.2208
    192  CG2      -56.2510  -17.7440   18.4670 C.3   285  THR285      0.0378
    193  N        -52.7600  -11.8090   18.1870 N.3   288  ILE288     -0.1245
    194  CA       -51.4890  -12.2000   17.5610 C.3   288  ILE288      0.1561
    195  C        -51.5830  -12.3780   16.0120 C.2   288  ILE288      0.2260
    196  O        -50.5540  -12.4580   15.3110 O.2   288  ILE288     -0.2867
    197  CB       -50.8810  -13.4030   18.2320 C.3   288  ILE288      0.0252
    198  CG1      -51.7040  -14.6560   17.9270 C.3   288  ILE288      0.0019
    199  CG2      -50.7680  -13.1490   19.7690 C.3   288  ILE288      0.0019
    200  CD1      -51.0860  -15.8890   18.5050 C.3   288  ILE288      0.0001
@<TRIPOS>BOND
     1   125   124    2
     2   122   123    1
     3   124   123    1
     4   114   113    1
     5     6     7    1
     6     6     5    1
     7     7     8    1
     8   117   118    2
     9   117   116    1
    10   123   126    1
    11     1     2    1
    12   116   119    1
    13   116   115    1
    14   109   108    2
    15   113   112    1
    16   111   112    1
    17   111   110    1
    18     2     5    1
    19     2     3    1
    20   119   120    1
    21   119   121    1
    22   126   127    1
    23   126   128    1
    24   115   108   am
    25   108   107    1
    26   196   195    2
    27   110   107    1
    28    12    11    2
    29   195   194    1
    30   107   106    1
    31     3     9   am
    32     3     4    2
    33     9    10    1
    34    11    10    1
    35   106    96   am
    36    10    13    1
    37   194   193    1
    38   194   197    1
    39   189   188    2
    40   135   129    1
    41   135   134    1
    42   198   197    1
    43   198   200    1
    44   129   130    1
    45   197   199    1
    46    96    97    2
    47    96    95    1
    48   192   190    1
    49    13    14    1
    50   188   187    1
    51    98    95    1
    52    98    99    1
    53    14    15    1
    54   134   133    1
    55   101    99   ar
    56   101   103   ar
    57   130   133    1
    58   130   131    1
    59    95    94    1
    60   141   140    1
    61   190   187    1
    62   190   191    1
    63   187   186    1
    64    99   100   ar
    65   136   131   am
    66   136   137    1
    67   103   104   ar
    68   140   137    1
    69   140   142    1
    70   131   132    2
    71    17    16    1
    72    15    16    1
    73   183   182    2
    74    94    91   am
    75   139   138    2
    76   137   138    1
    77    78    79    1
    78    78    75    1
    79   100   102   ar
    80   186   182   am
    81   104   102   ar
    82   104   105    1
    83    92    91    2
    84   182   181    1
    85    91    90    1
    86   138   143   am
    87    75    76    1
    88    75    74    1
    89    77    76    2
    90    93    90    1
    91    90    89    1
    92   181   180    1
    93   181   184    1
    94   143   144    1
    95   151   148    1
    96   175   174    2
    97    74    72   am
    98   147   148    1
    99   147   145   am
   100   144   145    1
   101   148   149    1
   102   184   185    1
   103   145   146    2
   104    72    73    2
   105    72    71    1
   106   174   173    1
   107   178   176    1
   108    71    70    1
   109   149   150    2
   110   149   152   am
   111   173   176    1
   112   173   172    1
   113    80    81    1
   114   176   177    1
   115    43    42    1
   116   152   153    1
   117    65    64    2
   118    81    82    1
   119    70    64   am
   120   179   177    1
   121   163   161   ar
   122    64    63    1
   123    42    44    1
   124    42    41    2
   125   164   165    1
   126   153   154    1
   127   156   154   am
   128   156   157    1
   129   160   161    1
   130   160   157    1
   131    82    83    2
   132    82    84   am
   133   161   162   ar
   134   158   157    1
   135   158   159    2
   136   171   170    1
   137    40    41    1
   138    40    39    1
   139   154   155    2
   140   168   165    1
   141   168   169    1
   142   165   166    1
   143    63    66    1
   144    63    62    1
   145    84    85    1
   146    66    67    1
   147    62    55   am
   148   170   169    1
   149    39    38    1
   150    38    35    1
   151   166   167    2
   152    85    88    1
   153    85    86    1
   154    61    60    1
   155    35    36    1
   156    35    34    1
   157    55    56    2
   158    55    54    1
   159    59    58    1
   160    59    60    1
   161    32    31    2
   162    57    58    1
   163    57    54    1
   164    67    68    1
   165    67    69    1
   166    36    37    2
   167    54    53    1
   168    87    86    2
   169    33    31   am
   170    51    50   ar
   171    31    30    1
   172    50    49    1
   173    50    52   ar
   174    49    46    1
   175    24    23   ar
   176    30    27    1
   177    29    28    2
   178    27    28    1
   179    27    26    1
   180    23    25   ar
   181    23    22    1
   182    46    47    1
   183    46    45    1
   184    47    48    2
   185    22    19    1
   186    19    20    1
   187    19    18    1
   188    21    20    2
