@<TRIPOS>MOLECULE
tmp/2varB00.pdb
 136 124 0 0 0
SMALL
GASTEIGER

@<TRIPOS>ATOM
      1  N        -47.5160    3.6460   31.2620 N.3     8  GLU8       -0.1245
      2  CA       -47.0990    4.5500   30.1830 C.3     8  GLU8        0.1567
      3  C        -47.6550    4.0410   28.8660 C.2     8  GLU8        0.2260
      4  O        -47.1380    3.0490   28.3230 O.2     8  GLU8       -0.2867
      5  CB       -45.5520    4.6710   30.0950 C.3     8  GLU8        0.0388
      6  CG       -45.0890    5.5170   28.8460 C.3     8  GLU8        0.1160
      7  CD       -43.5550    5.7910   28.8400 C.2     8  GLU8        0.3649
      8  OE1      -42.7890    5.1200   29.5710 O.co2   8  GLU8       -0.2457
      9  OE2      -43.1100    6.7090   28.1230 O.co2   8  GLU8       -0.2457
     10  N        -48.1150    4.2000   24.8110 N.3    10  LEU10      -0.1245
     11  CA       -47.0170    4.4300   23.8770 C.3    10  LEU10       0.1561
     12  C        -47.5590    4.3670   22.4640 C.2    10  LEU10       0.2260
     13  O        -48.6330    3.7940   22.2260 O.2    10  LEU10      -0.2867
     14  CB       -45.9380    3.3470   24.0450 C.3    10  LEU10       0.0270
     15  CG       -45.0800    3.2520   25.3150 C.3    10  LEU10       0.0019
     16  CD1      -44.4460    1.8440   25.4000 C.3    10  LEU10       0.0001
     17  CD2      -43.9910    4.3970   25.3910 C.3    10  LEU10       0.0001
     18  N        -48.7570    0.2240   24.4640 N.3    33  GLY33      -0.1210
     19  CA       -48.4330    0.3150   25.8970 C.3    33  GLY33       0.1956
     20  C        -49.2180   -0.7300   26.6870 C.2    33  GLY33       0.2612
     21  O        -50.4470   -0.8090   26.5890 O.2    33  GLY33      -0.2717
     22  N        -48.4980   -1.5220   27.4890 N.am   34  SER34      -0.1952
     23  CA       -49.0460   -2.6710   28.2110 C.3    34  SER34       0.1924
     24  C        -50.3530   -2.3950   28.9650 C.2    34  SER34       0.2314
     25  O        -51.3430   -3.0730   28.7180 O.2    34  SER34      -0.2863
     26  CB       -47.9770   -3.2960   29.1270 C.3    34  SER34       0.2116
     27  OG       -48.5030   -4.3340   29.9420 O.3    34  SER34      -0.2180
     28  N        -53.2910   -1.4350   26.6120 N.3    37  ASN37      -0.1240
     29  CA       -53.7730   -2.7140   26.0800 C.3    37  ASN37       0.1653
     30  C        -54.6620   -3.4190   27.1350 C.2    37  ASN37       0.2266
     31  O        -55.7640   -3.8670   26.8330 O.2    37  ASN37      -0.2867
     32  CB       -52.5900   -3.6430   25.7850 C.3    37  ASN37       0.1155
     33  CG       -51.7570   -3.2390   24.5530 C.2    37  ASN37       0.2627
     34  OD1      -52.1820   -2.4300   23.7210 O.2    37  ASN37      -0.2716
     35  ND2      -50.5340   -3.7990   24.4640 N.am   37  ASN37      -0.0877
     36  N        -42.1500    3.3410   20.2510 N.3    89  TYR89      -0.1241
     37  CA       -41.2380    2.2030   20.0330 C.3    89  TYR89       0.1605
     38  C        -41.4830    1.6400   18.6520 C.2    89  TYR89       0.2264
     39  O        -42.5310    1.9160   18.0330 O.2    89  TYR89      -0.2867
     40  CB       -41.4160    1.1570   21.1560 C.3    89  TYR89       0.0534
     41  CG       -42.7780    0.4440   21.1860 C.ar   89  TYR89      -0.0201
     42  CD1      -42.9050   -0.8640   20.7160 C.ar   89  TYR89      -0.0009
     43  CD2      -43.9160    1.0680   21.7140 C.ar   89  TYR89      -0.0009
     44  CE1      -44.1580   -1.5560   20.7900 C.ar   89  TYR89       0.0417
     45  CE2      -45.1350    0.4150   21.7670 C.ar   89  TYR89       0.0417
     46  CZ       -45.2430   -0.9120   21.3070 C.ar   89  TYR89       0.1957
     47  OH       -46.4760   -1.5440   21.3340 O.3    89  TYR89      -0.2866
     48  N        -38.6170   -5.1910   20.3520 N.3   103  LEU103     -0.1245
     49  CA       -39.0000   -3.7940   20.4980 C.3   103  LEU103      0.1561
     50  C        -37.7670   -2.9070   20.6530 C.2   103  LEU103      0.2260
     51  O        -36.8060   -3.2510   21.3490 O.2   103  LEU103     -0.2867
     52  CB       -39.9910   -3.6030   21.6720 C.3   103  LEU103      0.0270
     53  CG       -41.1600   -4.5840   21.9220 C.3   103  LEU103      0.0019
     54  CD1      -42.1000   -4.0580   23.0150 C.3   103  LEU103      0.0001
     55  CD2      -41.9890   -5.0270   20.7110 C.3   103  LEU103      0.0001
     56  N        -37.0960    0.8820   21.7960 N.3   105  TYR105     -0.1241
     57  CA       -37.7340    1.9890   22.4770 C.3   105  TYR105      0.1605
     58  C        -37.1130    3.3520   22.2390 C.2   105  TYR105      0.2264
     59  O        -35.8800    3.4810   22.1680 O.2   105  TYR105     -0.2867
     60  CB       -37.7020    1.7420   23.9830 C.3   105  TYR105      0.0534
     61  CG       -38.3980    0.4740   24.4400 C.ar  105  TYR105     -0.0201
     62  CD1      -39.7900    0.3850   24.4630 C.ar  105  TYR105     -0.0009
     63  CD2      -37.6470   -0.6130   24.8730 C.ar  105  TYR105     -0.0009
     64  CE1      -40.4130   -0.7900   24.9190 C.ar  105  TYR105      0.0417
     65  CE2      -38.2510   -1.7910   25.3160 C.ar  105  TYR105      0.0417
     66  CZ       -39.6230   -1.8610   25.3520 C.ar  105  TYR105      0.1957
     67  OH       -40.1970   -3.0280   25.8270 O.3   105  TYR105     -0.2866
     68  N        -38.0840    6.2610   24.5110 N.3   107  ARG107     -0.1245
     69  CA       -38.9230    6.5990   25.6580 C.3   107  ARG107      0.1563
     70  C        -38.1090    7.1180   26.8490 C.2   107  ARG107      0.2260
     71  O        -38.6730    7.4590   27.8680 O.2   107  ARG107     -0.2867
     72  CB       -39.6980    5.3450   26.1120 C.3   107  ARG107      0.0307
     73  CG       -38.7850    4.3040   26.8060 C.3   107  ARG107      0.0489
     74  CD       -39.4420    2.9180   27.1250 C.3   107  ARG107      0.2205
     75  NE       -40.6820    3.0200   27.9070 N.pl3 107  ARG107     -0.0865
     76  CZ       -41.5770    2.0420   28.0490 C.cat 107  ARG107      0.5346
     77  NH1      -41.3580    0.8530   27.4800 N.pl3 107  ARG107      0.1354
     78  NH2      -42.6820    2.2540   28.7600 N.pl3 107  ARG107      0.1354
     79  N        -43.2000   -3.1570   33.9080 N.3   136  ILE136     -0.1245
     80  CA       -42.7180   -2.0950   33.0120 C.3   136  ILE136      0.1561
     81  C        -42.7950   -0.7040   33.7000 C.2   136  ILE136      0.2260
     82  O        -41.8680    0.1120   33.6400 O.2   136  ILE136     -0.2867
     83  CB       -43.5340   -2.0910   31.6630 C.3   136  ILE136      0.0252
     84  CG1      -43.2450   -3.3790   30.8560 C.3   136  ILE136      0.0019
     85  CG2      -43.2670   -0.7680   30.8820 C.3   136  ILE136      0.0019
     86  CD1      -44.2550   -3.6790   29.7810 C.3   136  ILE136      0.0001
     87  N        -44.1760   -8.7220   33.7280 N.3   163  ASN163     -0.1240
     88  CA       -43.6850   -8.0690   32.5330 C.3   163  ASN163      0.1653
     89  C        -42.2340   -7.5490   32.6330 C.2   163  ASN163      0.2266
     90  O        -41.9850   -6.3250   32.4840 O.2   163  ASN163     -0.2867
     91  CB       -44.6150   -6.9070   32.1460 C.3   163  ASN163      0.1155
     92  CG       -45.4350   -7.2090   30.9270 C.2   163  ASN163      0.2627
     93  OD1      -45.0510   -8.0710   30.1180 O.2   163  ASN163     -0.2716
     94  ND2      -46.5940   -6.5180   30.7740 N.am  163  ASN163     -0.0877
     95  N        -38.9440   -6.6370   31.1600 N.3   165  ARG165     -0.1245
     96  CA       -38.2770   -6.3160   29.9290 C.3   165  ARG165      0.1563
     97  C        -36.8700   -5.9770   30.3330 C.2   165  ARG165      0.2260
     98  O        -36.6480   -4.8960   30.8920 O.2   165  ARG165     -0.2867
     99  CB       -38.9140   -5.0780   29.3060 C.3   165  ARG165      0.0307
    100  CG       -40.4320   -5.1400   29.2010 C.3   165  ARG165      0.0489
    101  CD       -40.8930   -5.8730   27.9380 C.3   165  ARG165      0.2205
    102  NE       -42.3330   -6.0180   27.9970 N.pl3 165  ARG165     -0.0865
    103  CZ       -43.1060   -6.4730   27.0230 C.cat 165  ARG165      0.5346
    104  NH1      -42.5900   -6.8390   25.8490 N.pl3 165  ARG165      0.1354
    105  NH2      -44.4020   -6.5590   27.2360 N.pl3 165  ARG165      0.1354
    106  N        -46.9200   -9.2660   20.0470 N.3   253  THR253     -0.1203
    107  CA       -46.7620   -8.1500   20.9990 C.3   253  THR253      0.1994
    108  C        -48.1360   -7.7580   21.5900 C.2   253  THR253      0.2618
    109  O        -49.0940   -7.5750   20.8490 O.2   253  THR253     -0.2717
    110  CB       -46.0880   -6.9330   20.3200 C.3   253  THR253      0.1784
    111  OG1      -44.8290   -7.3230   19.7930 O.3   253  THR253     -0.2211
    112  CG2      -45.8740   -5.7800   21.3380 C.3   253  THR253      0.0376
    113  N        -48.2400   -7.6520   22.9170 N.am  254  GLY254     -0.1956
    114  CA       -49.5300   -7.3150   23.5520 C.3   254  GLY254      0.1869
    115  C        -50.4440   -8.5020   23.8530 C.2   254  GLY254      0.2309
    116  O        -51.4970   -8.3320   24.4680 O.2   254  GLY254     -0.2863
    117  N        -50.0980  -10.9770   25.9350 N.3   256  GLY256     -0.1210
    118  CA       -50.1750  -11.1180   27.3800 C.3   256  GLY256      0.1956
    119  C        -51.1170  -10.1010   27.9760 C.2   256  GLY256      0.2611
    120  O        -51.8640  -10.4320   28.8840 O.2   256  GLY256     -0.2717
    121  N        -51.1250   -8.8640   27.4520 N.am  257  ASP257     -0.1973
    122  CA       -51.9980   -7.8200   28.0090 C.3   257  ASP257      0.1709
    123  C        -53.4430   -8.0830   27.6950 C.2   257  ASP257      0.2293
    124  O        -54.3200   -7.8010   28.5120 O.2   257  ASP257     -0.2864
    125  CB       -51.6260   -6.4230   27.4780 C.3   257  ASP257      0.1436
    126  CG       -50.1340   -6.1240   27.6300 C.2   257  ASP257      0.3671
    127  OD1      -49.5170   -6.4910   28.6360 O.co2 257  ASP257     -0.2456
    128  OD2      -49.5590   -5.5760   26.7060 O.co2 257  ASP257     -0.2456
    129  N        -51.7480   -4.3400   18.8440 N.3   293  ASP293     -0.1239
    130  CA       -51.9010   -5.0400   20.0910 C.3   293  ASP293      0.1674
    131  C        -53.3110   -5.2990   20.5430 C.2   293  ASP293      0.2266
    132  O        -53.5320   -6.3000   21.2520 O.2   293  ASP293     -0.2867
    133  CB       -51.1890   -4.2860   21.2240 C.3   293  ASP293      0.1410
    134  CG       -49.6760   -4.3260   21.1060 C.2   293  ASP293      0.3668
    135  OD1      -49.1460   -4.6070   20.0070 O.co2 293  ASP293     -0.2456
    136  OD2      -49.0070   -4.0290   22.1340 O.co2 293  ASP293     -0.2456
@<TRIPOS>BOND
     1    39    38    2
     2    38    37    1
     3   129   130    1
     4   111   110    1
     5   135   134   ar
     6    37    36    1
     7    37    40    1
     8   106   107    1
     9   130   131    1
    10   130   133    1
    11   110   107    1
    12   110   112    1
    13    48    49    1
    14    49    50    1
    15    49    52    1
    16   131   132    2
    17    50    51    2
    18    55    53    1
    19    42    44   ar
    20    42    41   ar
    21    44    46   ar
    22   109   108    2
    23   107   108    1
    24   134   133    1
    25   134   136   ar
    26    40    41    1
    27    41    43   ar
    28    46    47    1
    29    46    45   ar
    30   108   113   am
    31    52    53    1
    32    43    45   ar
    33    56    57    1
    34    53    54    1
    35    59    58    2
    36    13    12    2
    37    58    57    1
    38    12    11    1
    39    57    60    1
    40   113   114    1
    41   114   115    1
    42    34    33    2
    43   115   116    2
    44    11    14    1
    45    11    10    1
    46    60    61    1
    47    14    15    1
    48    61    62   ar
    49    61    63   ar
    50    62    64   ar
    51    18    19    1
    52    35    33   am
    53    68    69    1
    54    33    32    1
    55    63    65   ar
    56    64    66   ar
    57    15    17    1
    58    15    16    1
    59    65    66   ar
    60    66    67    1
    61    69    72    1
    62    69    70    1
    63    32    29    1
    64   104   103    1
    65    19    20    1
    66   117   118    1
    67    29    28    1
    68    29    30    1
    69    72    73    1
    70    21    20    2
    71    20    22   am
    72   128   126   ar
    73    73    74    1
    74    31    30    2
    75    70    71    2
    76   103   105    1
    77   103   102    2
    78    74    75    1
    79   118   119    1
    80   121   119   am
    81   121   122    1
    82   125   126    1
    83   125   122    1
    84    77    76    1
    85    22    23    1
    86   126   127   ar
    87   123   122    1
    88   123   124    2
    89    75    76    2
    90   101   102    1
    91   101   100    1
    92   119   120    2
    93    76    78    1
    94     9     7   ar
    95    23    24    1
    96    23    26    1
    97     4     3    2
    98    25    24    2
    99     7     6    1
   100     7     8   ar
   101     6     5    1
   102     3     2    1
   103    26    27    1
   104   100    99    1
   105    99    96    1
   106    86    84    1
   107    96    97    1
   108    96    95    1
   109     5     2    1
   110    93    92    2
   111     2     1    1
   112    97    98    2
   113    94    92   am
   114    84    83    1
   115    85    83    1
   116    92    91    1
   117    83    80    1
   118    91    88    1
   119    90    89    2
   120    88    89    1
   121    88    87    1
   122    80    81    1
   123    80    79    1
   124    82    81    2
