@<TRIPOS>MOLECULE
tmp/2varB02.pdb
 154 144 0 0 0
SMALL
GASTEIGER

@<TRIPOS>ATOM
      1  N        -42.0750  -15.7090   13.9400 N.3    99  MET99      -0.1230
      2  CA       -43.2970  -15.5410   14.7490 C.3    99  MET99       0.1702
      3  C        -43.0870  -14.9260   16.1540 C.2    99  MET99       0.2592
      4  O        -43.9600  -15.0280   17.0120 O.2    99  MET99      -0.2718
      5  CB       -44.1320  -16.8350   14.7720 C.3    99  MET99       0.0401
      6  CG       -44.2970  -17.4410   13.3710 C.3    99  MET99       0.0596
      7  SD       -44.7790  -19.1670   13.4110 S.3    99  MET99      -0.1393
      8  CE       -43.3820  -19.9770   14.1480 C.3    99  MET99       0.0692
      9  N        -41.9260  -14.3060   16.3760 N.am  100  LYS100     -0.1980
     10  CA       -41.6950  -13.4600   17.5560 C.3   100  LYS100      0.1596
     11  C        -41.2700  -12.0510   17.1050 C.2   100  LYS100      0.2287
     12  O        -40.9230  -11.8360   15.9170 O.2   100  LYS100     -0.2864
     13  CB       -40.6190  -14.0460   18.4790 C.3   100  LYS100      0.0298
     14  CG       -40.9420  -15.3900   19.1190 C.3   100  LYS100      0.0038
     15  CD       -41.3700  -15.2620   20.5570 C.3   100  LYS100      0.0206
     16  CE       -41.4380  -16.6540   21.2560 C.3   100  LYS100      0.1093
     17  NZ       -42.4630  -17.4830   20.5380 N.3   100  LYS100     -0.1314
     18  N        -44.9770  -15.5050   33.9170 N.3   194  ASP194     -0.1239
     19  CA       -44.5930  -16.6140   33.0550 C.3   194  ASP194      0.1674
     20  C        -43.2850  -17.1870   33.5660 C.2   194  ASP194      0.2266
     21  O        -42.7350  -16.6470   34.5200 O.2   194  ASP194     -0.2867
     22  CB       -44.4300  -16.1360   31.6180 C.3   194  ASP194      0.1410
     23  CG       -43.5930  -14.8480   31.5270 C.2   194  ASP194      0.3668
     24  OD1      -44.0540  -13.9080   30.8630 O.co2 194  ASP194     -0.2456
     25  OD2      -42.5050  -14.7720   32.1320 O.co2 194  ASP194     -0.2456
     26  N        -48.5860  -17.7450   32.0750 N.3   225  LYS225     -0.1231
     27  CA       -48.6250  -17.7280   30.6130 C.3   225  LYS225      0.1693
     28  C        -47.5560  -18.6200   30.0290 C.2   225  LYS225      0.2592
     29  O        -46.4000  -18.6140   30.4750 O.2   225  LYS225     -0.2718
     30  CB       -48.4350  -16.2970   30.1290 C.3   225  LYS225      0.0285
     31  CG       -49.5850  -15.3860   30.5460 C.3   225  LYS225      0.0035
     32  CD       -49.4220  -13.9640   30.0600 C.3   225  LYS225      0.0206
     33  CE       -48.3110  -13.2490   30.7660 C.3   225  LYS225      0.1093
     34  NZ       -47.1370  -13.1100   29.9130 N.3   225  LYS225     -0.1314
     35  N        -47.9240  -19.4020   29.0340 N.am  226  LEU226     -0.1966
     36  CA       -46.9250  -20.2940   28.4440 C.3   226  LEU226      0.1728
     37  C        -46.7460  -20.0820   26.9390 C.2   226  LEU226      0.2617
     38  O        -46.2390  -20.9680   26.2430 O.2   226  LEU226     -0.2715
     39  CB       -47.2550  -21.7670   28.7890 C.3   226  LEU226      0.0311
     40  CG       -47.4890  -22.1700   30.2670 C.3   226  LEU226      0.0022
     41  CD1      -48.1700  -23.5370   30.3120 C.3   226  LEU226      0.0001
     42  CD2      -46.1650  -22.1840   31.0790 C.3   226  LEU226      0.0001
     43  N        -47.1490  -18.9150   26.4340 N.am  227  GLY227     -0.1940
     44  CA       -47.0140  -18.6150   25.0020 C.3   227  GLY227      0.2014
     45  C        -47.7040  -19.6420   24.1060 C.2   227  GLY227      0.2639
     46  O        -48.9100  -19.9090   24.2720 O.2   227  GLY227     -0.2714
     47  N        -46.9560  -20.2500   23.1790 N.am  228  SER228     -0.1949
     48  CA       -47.5790  -21.1770   22.2080 C.3   228  SER228      0.1924
     49  C        -48.0260  -22.4850   22.8660 C.2   228  SER228      0.2314
     50  O        -48.6210  -23.3310   22.2110 O.2   228  SER228     -0.2863
     51  CB       -46.6640  -21.4690   21.0120 C.3   228  SER228      0.2116
     52  OG       -45.4810  -22.0870   21.4600 O.3   228  SER228     -0.2180
     53  N        -50.0390  -22.3280   25.6080 N.3   230  GLY230     -0.1210
     54  CA       -51.2740  -22.0060   26.3040 C.3   230  GLY230      0.1956
     55  C        -51.0150  -21.2920   27.6150 C.2   230  GLY230      0.2611
     56  O        -50.0430  -20.5560   27.7390 O.2   230  GLY230     -0.2717
     57  N        -51.8950  -21.4820   28.5920 N.am  231  ALA231     -0.1979
     58  CA       -51.7400  -20.8550   29.9110 C.3   231  ALA231      0.1597
     59  C        -52.4250  -21.7000   31.0100 C.2   231  ALA231      0.2287
     60  O        -53.3610  -22.4430   30.7360 O.2   231  ALA231     -0.2864
     61  CB       -52.3100  -19.4140   29.9130 C.3   231  ALA231      0.0319
     62  N        -52.9400  -23.2880   23.7560 N.3   244  ALA244     -0.1231
     63  CA       -52.9930  -22.2070   22.7830 C.3   244  ALA244      0.1694
     64  C        -53.6700  -22.7850   21.5410 C.2   244  ALA244      0.2592
     65  O        -53.6910  -24.0160   21.3510 O.2   244  ALA244     -0.2718
     66  CB       -51.5740  -21.7550   22.4450 C.3   244  ALA244      0.0304
     67  N        -54.2240  -21.9120   20.7100 N.am  245  TYR245     -0.1962
     68  CA       -54.7090  -22.2900   19.3920 C.3   245  TYR245      0.1771
     69  C        -53.6860  -21.9930   18.3140 C.2   245  TYR245      0.2619
     70  O        -53.0210  -20.9390   18.3520 O.2   245  TYR245     -0.2715
     71  CB       -55.9430  -21.5230   19.0400 C.3   245  TYR245      0.0574
     72  CG       -57.1680  -21.8650   19.8290 C.ar  245  TYR245     -0.0198
     73  CD1      -57.3990  -21.2450   21.0650 C.ar  245  TYR245     -0.0009
     74  CD2      -58.1290  -22.7800   19.3390 C.ar  245  TYR245     -0.0009
     75  CE1      -58.5500  -21.5040   21.7860 C.ar  245  TYR245      0.0417
     76  CE2      -59.2950  -23.0580   20.0750 C.ar  245  TYR245      0.0417
     77  CZ       -59.4850  -22.4120   21.3050 C.ar  245  TYR245      0.1957
     78  OH       -60.6000  -22.6130   22.0670 O.3   245  TYR245     -0.2866
     79  N        -53.6080  -22.8870   17.3280 N.am  246  LYS246     -0.1963
     80  CA       -52.7750  -22.6990   16.1290 C.3   246  LYS246      0.1728
     81  C        -53.3920  -21.7030   15.1330 C.2   246  LYS246      0.2616
     82  O        -54.4030  -21.9870   14.4720 O.2   246  LYS246     -0.2715
     83  CB       -52.5090  -24.0480   15.4380 C.3   246  LYS246      0.0311
     84  CG       -51.2000  -24.0710   14.6390 C.3   246  LYS246      0.0038
     85  CD       -50.0920  -24.8460   15.4170 C.3   246  LYS246      0.0206
     86  CE       -48.7630  -24.9450   14.6160 C.3   246  LYS246      0.1093
     87  NZ       -48.9820  -25.3960   13.1890 N.3   246  LYS246     -0.1314
     88  N        -52.7870  -20.5190   15.0440 N.am  247  VAL247     -0.1977
     89  CA       -53.2130  -19.4800   14.0880 C.3   247  VAL247      0.1596
     90  C        -51.9600  -18.9020   13.4350 C.2   247  VAL247      0.2287
     91  O        -50.8690  -19.0670   13.9740 O.2   247  VAL247     -0.2864
     92  CB       -54.0340  -18.3430   14.7710 C.3   247  VAL247      0.0276
     93  CG1      -55.4620  -18.8130   15.1290 C.3   247  VAL247      0.0022
     94  CG2      -53.2700  -17.7160   15.9840 C.3   247  VAL247      0.0022
     95  N        -49.2980  -16.3030   13.0100 N.3   249  VAL249     -0.1245
     96  CA       -48.8330  -15.2400   13.8610 C.3   249  VAL249      0.1561
     97  C        -48.2520  -14.0940   13.0250 C.2   249  VAL249      0.2260
     98  O        -47.2590  -14.2500   12.3280 O.2   249  VAL249     -0.2867
     99  CB       -47.7920  -15.7950   14.8890 C.3   249  VAL249      0.0252
    100  CG1      -47.1870  -14.6720   15.7520 C.3   249  VAL249      0.0019
    101  CG2      -48.4460  -16.8520   15.7570 C.3   249  VAL249      0.0019
    102  N        -46.9160  -11.2390   18.0620 N.3   252  PRO252     -0.2116
    103  CA       -47.4990  -11.5660   19.3680 C.3   252  PRO252      0.1372
    104  C        -47.4400  -10.4300   20.4260 C.2   252  PRO252      0.2244
    105  O        -47.9060  -10.6060   21.5830 O.2   252  PRO252     -0.2868
    106  CB       -46.6710  -12.7670   19.8090 C.3   252  PRO252      0.0268
    107  CG       -45.3050  -12.4880   19.2060 C.3   252  PRO252      0.0207
    108  CD       -45.5450  -11.7610   17.9010 C.3   252  PRO252      0.0892
    109  N        -50.0540   -9.7040   23.4280 N.3   255  ALA255     -0.1231
    110  CA       -50.8820  -10.8940   23.6240 C.3   255  ALA255      0.1694
    111  C        -51.1510  -11.1200   25.1280 C.2   255  ALA255      0.2592
    112  O        -52.2950  -11.4010   25.5140 O.2   255  ALA255     -0.2718
    113  CB       -50.2080  -12.1420   22.9980 C.3   255  ALA255      0.0304
    114  N        -50.0980  -10.9770   25.9350 N.am  256  GLY256     -0.1957
    115  CA       -50.1750  -11.1180   27.3800 C.3   256  GLY256      0.1869
    116  C        -51.1170  -10.1010   27.9760 C.2   256  GLY256      0.2309
    117  O        -51.8640  -10.4320   28.8840 O.2   256  GLY256     -0.2863
    118  N        -54.8080  -11.0620   27.2610 N.3   259  MET259     -0.1245
    119  CA       -55.1460  -12.1490   28.1620 C.3   259  MET259      0.1570
    120  C        -55.3660  -11.6300   29.6080 C.2   259  MET259      0.2261
    121  O        -56.3870  -11.9410   30.2340 O.2   259  MET259     -0.2867
    122  CB       -54.0130  -13.1680   28.1350 C.3   259  MET259      0.0387
    123  CG       -54.1660  -14.2590   29.1860 C.3   259  MET259      0.0595
    124  SD       -52.9500  -15.5570   29.0480 S.3   259  MET259     -0.1393
    125  CE       -53.6740  -16.4720   27.6980 C.3   259  MET259      0.0692
    126  N        -57.3050  -16.6630   26.5740 N.3   281  ILE281     -0.1245
    127  CA       -56.6750  -17.3730   25.4760 C.3   281  ILE281      0.1561
    128  C        -57.2980  -16.9360   24.1640 C.2   281  ILE281      0.2260
    129  O        -56.6090  -16.8040   23.1480 O.2   281  ILE281     -0.2867
    130  CB       -56.8550  -18.9440   25.6220 C.3   281  ILE281      0.0252
    131  CG1      -56.0670  -19.4660   26.8050 C.3   281  ILE281      0.0019
    132  CG2      -56.4810  -19.6930   24.2880 C.3   281  ILE281      0.0019
    133  CD1      -54.5950  -19.6770   26.5460 C.3   281  ILE281      0.0001
    134  N        -56.0080  -13.3810   23.3450 N.3   284  SER284     -0.1202
    135  CA       -54.6340  -13.4590   22.8820 C.3   284  SER284      0.2020
    136  C        -54.4830  -14.0500   21.4630 C.2   284  SER284      0.2619
    137  O        -53.6100  -13.6210   20.7070 O.2   284  SER284     -0.2717
    138  CB       -53.8440  -14.3390   23.8160 C.3   284  SER284      0.2103
    139  OG       -53.5320  -13.6600   25.0210 O.3   284  SER284     -0.2182
    140  N        -55.2760  -15.0810   21.1490 N.am  285  THR285     -0.1952
    141  CA       -55.2610  -15.7440   19.8280 C.3   285  THR285      0.1897
    142  C        -55.6070  -14.7600   18.7320 C.2   285  THR285      0.2313
    143  O        -54.9520  -14.7590   17.6740 O.2   285  THR285     -0.2863
    144  CB       -56.2850  -16.9390   19.8060 C.3   285  THR285      0.1794
    145  OG1      -55.9880  -17.8250   20.8920 O.3   285  THR285     -0.2208
    146  CG2      -56.2510  -17.7440   18.4670 C.3   285  THR285      0.0378
    147  N        -52.7600  -11.8090   18.1870 N.3   288  ILE288     -0.1245
    148  CA       -51.4890  -12.2000   17.5610 C.3   288  ILE288      0.1561
    149  C        -51.5830  -12.3780   16.0120 C.2   288  ILE288      0.2260
    150  O        -50.5540  -12.4580   15.3110 O.2   288  ILE288     -0.2867
    151  CB       -50.8810  -13.4030   18.2320 C.3   288  ILE288      0.0252
    152  CG1      -51.7040  -14.6560   17.9270 C.3   288  ILE288      0.0019
    153  CG2      -50.7680  -13.1490   19.7690 C.3   288  ILE288      0.0019
    154  CD1      -51.0860  -15.8890   18.5050 C.3   288  ILE288      0.0001
@<TRIPOS>BOND
     1    98    97    2
     2    95    96    1
     3    97    96    1
     4    87    86    1
     5     6     7    1
     6     6     5    1
     7     7     8    1
     8    90    91    2
     9    90    89    1
    10    96    99    1
    11     1     2    1
    12    89    92    1
    13    89    88    1
    14    82    81    2
    15    86    85    1
    16    84    85    1
    17    84    83    1
    18     2     5    1
    19     2     3    1
    20    92    93    1
    21    92    94    1
    22    99   100    1
    23    99   101    1
    24    88    81   am
    25    81    80    1
    26   150   149    2
    27    83    80    1
    28    12    11    2
    29   149   148    1
    30    80    79    1
    31     3     9   am
    32     3     4    2
    33     9    10    1
    34    11    10    1
    35    79    69   am
    36    10    13    1
    37   148   147    1
    38   148   151    1
    39   143   142    2
    40   108   102    1
    41   108   107    1
    42   152   151    1
    43   152   154    1
    44   102   103    1
    45   151   153    1
    46    69    70    2
    47    69    68    1
    48   146   144    1
    49    13    14    1
    50   142   141    1
    51    71    68    1
    52    71    72    1
    53    14    15    1
    54   107   106    1
    55    74    72   ar
    56    74    76   ar
    57   103   106    1
    58   103   104    1
    59    68    67    1
    60   144   141    1
    61   144   145    1
    62   141   140    1
    63    72    73   ar
    64    76    77   ar
    65   104   105    2
    66    17    16    1
    67    15    16    1
    68   137   136    2
    69    67    64   am
    70    51    52    1
    71    51    48    1
    72    73    75   ar
    73   140   136   am
    74    77    75   ar
    75    77    78    1
    76    65    64    2
    77   136   135    1
    78    64    63    1
    79    48    49    1
    80    48    47    1
    81    50    49    2
    82    66    63    1
    83    63    62    1
    84   135   134    1
    85   135   138    1
    86   113   110    1
    87   129   128    2
    88    47    45   am
    89   109   110    1
    90   110   111    1
    91   138   139    1
    92    45    46    2
    93    45    44    1
    94   128   127    1
    95   132   130    1
    96    44    43    1
    97   111   112    2
    98   111   114   am
    99   127   130    1
   100   127   126    1
   101    53    54    1
   102   130   131    1
   103   114   115    1
   104    38    37    2
   105    54    55    1
   106    43    37   am
   107   133   131    1
   108    37    36    1
   109   118   119    1
   110   115   116    1
   111    55    56    2
   112    55    57   am
   113   125   124    1
   114   116   117    2
   115   122   119    1
   116   122   123    1
   117   119   120    1
   118    36    39    1
   119    36    35    1
   120    57    58    1
   121    39    40    1
   122    35    28   am
   123   124   123    1
   124   120   121    2
   125    58    61    1
   126    58    59    1
   127    34    33    1
   128    28    29    2
   129    28    27    1
   130    32    31    1
   131    32    33    1
   132    30    31    1
   133    30    27    1
   134    40    41    1
   135    40    42    1
   136    27    26    1
   137    60    59    2
   138    24    23   ar
   139    23    22    1
   140    23    25   ar
   141    22    19    1
   142    19    20    1
   143    19    18    1
   144    20    21    2
