@<TRIPOS>MOLECULE
tmp/2vatJ00.pdb
 222 217 0 0 0
SMALL
GASTEIGER

@<TRIPOS>ATOM
      1  N         81.1570    5.8360  -49.4980 N.3    52  THR52      -0.1203
      2  CA        80.4510    5.9690  -48.2160 C.3    52  THR52       0.1994
      3  C         80.0500    7.4330  -47.9980 C.2    52  THR52       0.2618
      4  O         80.4370    8.3200  -48.7730 O.2    52  THR52      -0.2717
      5  CB        81.3300    5.4970  -47.0510 C.3    52  THR52       0.1784
      6  OG1       82.5830    6.1860  -47.0950 O.3    52  THR52      -0.2211
      7  CG2       81.6290    3.9970  -47.1480 C.3    52  THR52       0.0376
      8  N         79.2650    7.6520  -46.9530 N.am   53  LEU53      -0.1965
      9  CA        78.6620    8.9440  -46.6080 C.3    53  LEU53       0.1728
     10  C         79.6250   10.1590  -46.6590 C.2    53  LEU53       0.2617
     11  O         79.2470   11.2370  -47.1370 O.2    53  LEU53      -0.2715
     12  CB        78.0710    8.8440  -45.1880 C.3    53  LEU53       0.0311
     13  CG        77.5260   10.1240  -44.5410 C.3    53  LEU53       0.0022
     14  CD1       76.2920   10.5340  -45.3090 C.3    53  LEU53       0.0001
     15  CD2       77.2090    9.8780  -43.0350 C.3    53  LEU53       0.0001
     16  N         80.8380    9.9970  -46.1390 N.am   54  THR54      -0.1937
     17  CA        81.7300   11.1590  -45.9860 C.3    54  THR54       0.2028
     18  C         83.0290   11.0420  -46.7900 C.2    54  THR54       0.2642
     19  O         83.9270   11.8930  -46.6600 O.2    54  THR54      -0.2714
     20  CB        82.0750   11.4470  -44.4700 C.3    54  THR54       0.1808
     21  OG1       82.7940   10.3300  -43.9160 O.3    54  THR54      -0.2208
     22  CG2       80.8370   11.6540  -43.6830 C.3    54  THR54       0.0379
     23  N         83.1190   10.0200  -47.6380 N.am   55  SER55      -0.1949
     24  CA        84.2680    9.8860  -48.5150 C.3    55  SER55       0.1924
     25  C         84.0560   10.6320  -49.8470 C.2    55  SER55       0.2314
     26  O         82.9500   11.1320  -50.1490 O.2    55  SER55      -0.2863
     27  CB        84.6290    8.4050  -48.7490 C.3    55  SER55       0.2116
     28  OG        83.8730    7.8790  -49.8040 O.3    55  SER55      -0.2180
     29  N         90.5790    4.6800  -48.8230 N.3    62  TRP62      -0.1241
     30  CA        90.1270    3.8670  -47.6790 C.3    62  TRP62       0.1605
     31  C         89.9680    2.3830  -47.9790 C.2    62  TRP62       0.2264
     32  O         89.8740    1.5700  -47.0650 O.2    62  TRP62      -0.2867
     33  CB        88.8600    4.4460  -47.0730 C.3    62  TRP62       0.0550
     34  CG        87.8100    4.6570  -48.0740 C.ar   62  TRP62       0.0003
     35  CD1       87.6450    5.7530  -48.8920 C.ar   62  TRP62       0.0946
     36  CD2       86.7900    3.7250  -48.4250 C.ar   62  TRP62       0.0152
     37  NE1       86.5410    5.5590  -49.7150 N.ar   62  TRP62      -0.2442
     38  CE2       86.0050    4.3200  -49.4420 C.ar   62  TRP62       0.0810
     39  CE3       86.4410    2.4590  -47.9520 C.ar   62  TRP62       0.0012
     40  CZ2       84.9120    3.6830  -50.0020 C.ar   62  TRP62       0.0191
     41  CZ3       85.3470    1.8260  -48.5040 C.ar   62  TRP62       0.0001
     42  CH2       84.5900    2.4390  -49.5230 C.ar   62  TRP62       0.0015
     43  N         77.4790    0.1840  -47.0930 N.3   139  SER139     -0.1202
     44  CA        76.8450    1.1730  -46.1890 C.3   139  SER139      0.2020
     45  C         75.9160    2.0670  -47.0030 C.2   139  SER139      0.2618
     46  O         74.9840    1.5500  -47.6540 O.2   139  SER139     -0.2717
     47  CB        77.9180    1.9650  -45.4210 C.3   139  SER139      0.2103
     48  OG        77.3470    2.5420  -44.2270 O.3   139  SER139     -0.2182
     49  N         76.1690    3.3810  -47.0660 N.am  140  MET140     -0.1979
     50  CA        75.3440    4.1760  -47.9900 C.3   140  MET140      0.1605
     51  C         75.4250    3.6460  -49.4420 C.2   140  MET140      0.2287
     52  O         74.4040    3.5060  -50.1050 O.2   140  MET140     -0.2864
     53  CB        75.6770    5.6630  -47.9500 C.3   140  MET140      0.0413
     54  CG        74.9380    6.4320  -49.0820 C.3   140  MET140      0.0598
     55  SD        75.2090    8.2380  -48.9760 S.3   140  MET140     -0.1393
     56  CE        73.8050    8.6110  -47.9860 C.3   140  MET140      0.0692
     57  N         80.1170   13.3340  -35.4310 N.3   208  ARG208     -0.1245
     58  CA        81.0680   12.2730  -35.7800 C.3   208  ARG208      0.1563
     59  C         81.5070   11.3650  -34.6100 C.2   208  ARG208      0.2260
     60  O         81.6850   10.1460  -34.8210 O.2   208  ARG208     -0.2867
     61  CB        82.2430   12.8760  -36.5450 C.3   208  ARG208      0.0307
     62  CG        83.4700   12.0170  -36.6260 C.3   208  ARG208      0.0489
     63  CD        83.4450   10.8600  -37.6560 C.3   208  ARG208      0.2205
     64  NE        84.6790   10.0620  -37.4540 N.pl3 208  ARG208     -0.0865
     65  CZ        84.9130    8.8310  -37.9280 C.cat 208  ARG208      0.5346
     66  NH1       86.0790    8.2320  -37.6540 N.pl3 208  ARG208      0.1354
     67  NH2       83.9910    8.1810  -38.6520 N.pl3 208  ARG208      0.1354
     68  N         79.4920    2.9350  -35.5430 N.3   215  TYR215     -0.1227
     69  CA        80.2570    2.1140  -36.5220 C.3   215  TYR215      0.1736
     70  C         81.1130    1.0110  -35.8810 C.2   215  TYR215      0.2595
     71  O         81.6830    0.1830  -36.5760 O.2   215  TYR215     -0.2718
     72  CB        81.1780    2.9910  -37.3900 C.3   215  TYR215      0.0548
     73  CG        80.4820    4.0700  -38.1870 C.ar  215  TYR215     -0.0200
     74  CD1       79.1250    3.9390  -38.5650 C.ar  215  TYR215     -0.0009
     75  CD2       81.1800    5.2230  -38.5950 C.ar  215  TYR215     -0.0009
     76  CE1       78.4790    4.9280  -39.3080 C.ar  215  TYR215      0.0417
     77  CE2       80.5280    6.2510  -39.3560 C.ar  215  TYR215      0.0417
     78  CZ        79.1890    6.0720  -39.6930 C.ar  215  TYR215      0.1957
     79  OH        78.5470    7.0390  -40.4060 O.3   215  TYR215     -0.2866
     80  N         81.2440    1.0280  -34.5640 N.am  216  LYS216     -0.1980
     81  CA        82.0810    0.0560  -33.8630 C.3   216  LYS216      0.1596
     82  C         81.2080   -0.9630  -33.1300 C.2   216  LYS216      0.2287
     83  O         80.0170   -1.0340  -33.3080 O.2   216  LYS216     -0.2864
     84  CB        83.0220    0.7660  -32.8590 C.3   216  LYS216      0.0298
     85  CG        83.9710    1.7610  -33.4980 C.3   216  LYS216      0.0038
     86  CD        85.3170    1.1390  -33.8500 C.3   216  LYS216      0.0206
     87  CE        86.1210    2.1280  -34.6560 C.3   216  LYS216      0.1093
     88  NZ        86.8140    1.3990  -35.7540 N.3   216  LYS216     -0.1314
     89  N         90.2580   -2.0310  -27.7290 N.3   224  ARG224     -0.1231
     90  CA        90.9800   -0.7740  -27.8210 C.3   224  ARG224      0.1694
     91  C         91.2300   -0.0720  -26.4870 C.2   224  ARG224      0.2592
     92  O         92.2320    0.6370  -26.3720 O.2   224  ARG224     -0.2718
     93  CB        90.2630    0.1920  -28.7570 C.3   224  ARG224      0.0321
     94  CG        90.4420   -0.1370  -30.2140 C.3   224  ARG224      0.0489
     95  CD        89.3370    0.4750  -31.0820 C.3   224  ARG224      0.2205
     96  NE        89.5480    0.1870  -32.5100 N.pl3 224  ARG224     -0.0865
     97  CZ        89.3640   -1.0200  -33.0780 C.cat 224  ARG224      0.5346
     98  NH1       89.5930   -1.1920  -34.3730 N.pl3 224  ARG224      0.1354
     99  NH2       88.9710   -2.0610  -32.3560 N.pl3 224  ARG224      0.1354
    100  N         90.2730   -0.1590  -25.5620 N.am  225  PHE225     -0.1976
    101  CA        90.3400    0.5570  -24.2950 C.3   225  PHE225      0.1639
    102  C         89.8920   -0.3720  -23.2130 C.2   225  PHE225      0.2290
    103  O         88.8120   -0.9390  -23.3050 O.2   225  PHE225     -0.2864
    104  CB        89.4970    1.8260  -24.3210 C.3   225  PHE225      0.0560
    105  CG        89.9370    2.8070  -25.3720 C.ar  225  PHE225     -0.0200
    106  CD1       89.3000    2.8430  -26.6080 C.ar  225  PHE225     -0.0042
    107  CD2       91.0100    3.6660  -25.1430 C.ar  225  PHE225     -0.0042
    108  CE1       89.7370    3.7050  -27.6150 C.ar  225  PHE225     -0.0003
    109  CE2       91.4490    4.5410  -26.1310 C.ar  225  PHE225     -0.0003
    110  CZ        90.8120    4.5590  -27.3730 C.ar  225  PHE225     -0.0000
    111  N         94.9140    5.2050  -27.3870 N.3   228  GLY228     -0.1225
    112  CA        95.7230    4.0570  -27.0630 C.3   228  GLY228      0.1811
    113  C         94.9500    3.0310  -26.2820 C.2   228  GLY228      0.2280
    114  O         93.7720    2.8180  -26.5550 O.2   228  GLY228     -0.2866
    115  N         92.4060    6.9930  -21.8530 N.3   233  ALA233     -0.1245
    116  CA        92.8060    7.4550  -23.1890 C.3   233  ALA233      0.1562
    117  C         91.5870    7.7000  -24.1000 C.2   233  ALA233      0.2260
    118  O         91.7240    8.2550  -25.1600 O.2   233  ALA233     -0.2867
    119  CB        93.7480    6.4500  -23.8360 C.3   233  ALA233      0.0290
    120  N         90.7240   11.3840  -25.3420 N.3   236  SER236     -0.1202
    121  CA        91.6370   11.9920  -26.2890 C.3   236  SER236      0.2020
    122  C         91.3600   11.3910  -27.6670 C.2   236  SER236      0.2618
    123  O         91.3860   12.0750  -28.6690 O.2   236  SER236     -0.2717
    124  CB        93.0840   11.6790  -25.8470 C.3   236  SER236      0.2103
    125  OG        94.0160   11.9540  -26.8690 O.3   236  SER236     -0.2182
    126  N         91.0890   10.1010  -27.6850 N.am  237  TYR237     -0.1975
    127  CA        90.7090    9.4120  -28.8810 C.3   237  TYR237      0.1639
    128  C         89.4330   10.0100  -29.5180 C.2   237  TYR237      0.2290
    129  O         89.4070   10.2640  -30.7100 O.2   237  TYR237     -0.2864
    130  CB        90.5210    7.9420  -28.5380 C.3   237  TYR237      0.0560
    131  CG        89.7980    7.1420  -29.5730 C.ar  237  TYR237     -0.0198
    132  CD1       88.4460    6.7980  -29.4010 C.ar  237  TYR237     -0.0009
    133  CD2       90.4540    6.6990  -30.7240 C.ar  237  TYR237     -0.0009
    134  CE1       87.7710    6.0450  -30.3410 C.ar  237  TYR237      0.0417
    135  CE2       89.7860    5.9370  -31.6750 C.ar  237  TYR237      0.0417
    136  CZ        88.4370    5.6250  -31.4740 C.ar  237  TYR237      0.1957
    137  OH        87.7530    4.8730  -32.4190 O.3   237  TYR237     -0.2866
    138  N         90.1840   13.5210  -30.8860 N.3   240  TYR240     -0.1227
    139  CA        91.0140   13.4530  -32.0820 C.3   240  TYR240      0.1736
    140  C         90.1880   13.0940  -33.3240 C.2   240  TYR240      0.2595
    141  O         90.2240   13.7980  -34.3380 O.2   240  TYR240     -0.2718
    142  CB        92.1730   12.4520  -31.9100 C.3   240  TYR240      0.0548
    143  CG        92.9700   12.2640  -33.1980 C.ar  240  TYR240     -0.0200
    144  CD1       92.7570   11.1580  -34.0190 C.ar  240  TYR240     -0.0009
    145  CD2       93.8890   13.2320  -33.6150 C.ar  240  TYR240     -0.0009
    146  CE1       93.4630   10.9980  -35.2140 C.ar  240  TYR240      0.0417
    147  CE2       94.6080   13.0860  -34.7990 C.ar  240  TYR240      0.0417
    148  CZ        94.3900   11.9690  -35.6010 C.ar  240  TYR240      0.1957
    149  OH        95.1160   11.8350  -36.7850 O.3   240  TYR240     -0.2866
    150  N         89.4280   12.0150  -33.2180 N.am  241  GLN241     -0.1979
    151  CA        88.5620   11.5440  -34.3050 C.3   241  GLN241      0.1601
    152  C         87.6280   12.6460  -34.7670 C.2   241  GLN241      0.2287
    153  O         87.5250   12.9250  -35.9470 O.2   241  GLN241     -0.2864
    154  CB        87.7350   10.3330  -33.8280 C.3   241  GLN241      0.0394
    155  CG        88.5480    9.0510  -33.6060 C.3   241  GLN241      0.0908
    156  CD        89.1330    8.5080  -34.9060 C.2   241  GLN241      0.2608
    157  OE1       88.6560    8.8320  -35.9860 O.2   241  GLN241     -0.2717
    158  NE2       90.1520    7.6760  -34.8050 N.am  241  GLN241     -0.0878
    159  N         89.3850   15.8010  -36.4400 N.3   244  LYS244     -0.1245
    160  CA        89.8900   15.3880  -37.7560 C.3   244  LYS244      0.1561
    161  C         88.7860   15.5140  -38.8010 C.2   244  LYS244      0.2260
    162  O         89.0130   16.0890  -39.8770 O.2   244  LYS244     -0.2867
    163  CB        90.3830   13.9460  -37.6380 C.3   244  LYS244      0.0271
    164  CG        91.0100   13.2810  -38.8770 C.3   244  LYS244      0.0035
    165  CD        91.4940   11.9020  -38.4040 C.3   244  LYS244      0.0206
    166  CE        91.5450   10.8690  -39.4700 C.3   244  LYS244      0.1093
    167  NZ        91.6910    9.5480  -38.7950 N.3   244  LYS244     -0.1314
    168  N         69.3640    9.1400  -46.6350 N.3   261  PHE261     -0.1241
    169  CA        69.0420    7.8970  -45.9450 C.3   261  PHE261      0.1605
    170  C         67.5520    7.8190  -45.7190 C.2   261  PHE261      0.2264
    171  O         66.9720    6.7510  -45.7750 O.2   261  PHE261     -0.2867
    172  CB        69.7050    7.8640  -44.5630 C.3   261  PHE261      0.0534
    173  CG        71.1800    7.5380  -44.5800 C.ar  261  PHE261     -0.0203
    174  CD1       71.6570    6.4190  -45.2360 C.ar  261  PHE261     -0.0042
    175  CD2       72.0900    8.3270  -43.8590 C.ar  261  PHE261     -0.0042
    176  CE1       73.0160    6.1170  -45.2180 C.ar  261  PHE261     -0.0003
    177  CE2       73.4550    8.0150  -43.8210 C.ar  261  PHE261     -0.0003
    178  CZ        73.9160    6.9190  -44.5030 C.ar  261  PHE261     -0.0000
    179  N         80.0220   -2.1150  -37.7020 N.3   322  HIS322     -0.1226
    180  CA        79.7240   -1.6320  -39.0610 C.3   322  HIS322      0.1752
    181  C         80.9900   -1.3600  -39.8750 C.2   322  HIS322      0.2596
    182  O         81.0300   -1.5960  -41.0970 O.2   322  HIS322     -0.2718
    183  CB        78.8470   -0.3800  -38.9840 C.3   322  HIS322      0.0759
    184  CG        78.3770    0.1200  -40.3180 C.ar  322  HIS322      0.0818
    185  ND1       77.6260   -0.6550  -41.1890 N.ar  322  HIS322     -0.2268
    186  CD2       78.5510    1.3150  -40.9270 C.ar  322  HIS322      0.1154
    187  CE1       77.3740    0.0400  -42.2770 C.ar  322  HIS322      0.1986
    188  NE2       77.9140    1.2420  -42.1400 N.ar  322  HIS322     -0.2212
    189  N         81.9980   -0.8290  -39.1950 N.am  323  ASP323     -0.1974
    190  CA        83.3330   -0.5790  -39.7250 C.3   323  ASP323      0.1709
    191  C         84.0350   -1.7910  -40.3530 C.2   323  ASP323      0.2293
    192  O         85.0740   -1.6320  -40.9730 O.2   323  ASP323     -0.2864
    193  CB        84.2340   -0.1240  -38.5610 C.3   323  ASP323      0.1436
    194  CG        84.4410    1.3780  -38.5380 C.2   323  ASP323      0.3671
    195  OD1       83.8380    2.0740  -39.3970 O.co2 323  ASP323     -0.2456
    196  OD2       85.2290    1.8630  -37.6720 O.co2 323  ASP323     -0.2456
    197  N         83.8160   -3.5390  -42.9440 N.3   325  PHE325     -0.1227
    198  CA        84.1000   -3.5640  -44.3960 C.3   325  PHE325      0.1736
    199  C         85.4120   -2.8380  -44.7290 C.2   325  PHE325      0.2595
    200  O         86.0660   -3.1050  -45.7980 O.2   325  PHE325     -0.2718
    201  CB        82.8900   -3.1010  -45.2520 C.3   325  PHE325      0.0547
    202  CG        82.5020   -1.6400  -45.0600 C.ar  325  PHE325     -0.0202
    203  CD1       83.1490   -0.6410  -45.7700 C.ar  325  PHE325     -0.0042
    204  CD2       81.4830   -1.2810  -44.1870 C.ar  325  PHE325     -0.0042
    205  CE1       82.8410    0.7030  -45.5910 C.ar  325  PHE325     -0.0003
    206  CE2       81.1320    0.0730  -44.0160 C.ar  325  PHE325     -0.0003
    207  CZ        81.8290    1.0680  -44.7240 C.ar  325  PHE325     -0.0000
    208  N         85.8330   -1.9540  -43.8200 N.am  326  VAL326     -0.1966
    209  CA        87.1330   -1.2860  -43.9300 C.3   326  VAL326      0.1727
    210  C         88.2220   -2.0220  -43.1160 C.2   326  VAL326      0.2616
    211  O         89.3760   -2.1100  -43.5540 O.2   326  VAL326     -0.2715
    212  CB        87.0290    0.1770  -43.4550 C.3   326  VAL326      0.0290
    213  CG1       88.3970    0.7950  -43.3940 C.3   326  VAL326      0.0023
    214  CG2       86.1510    0.9710  -44.3830 C.3   326  VAL326      0.0023
    215  N         87.8600   -2.5490  -41.9440 N.am  327  MET327     -0.1977
    216  CA        88.8330   -3.2240  -41.0410 C.3   327  MET327      0.1605
    217  C         89.2090   -4.5960  -41.5460 C.2   327  MET327      0.2287
    218  O         90.3390   -5.0730  -41.3130 O.2   327  MET327     -0.2864
    219  CB        88.2670   -3.3980  -39.6230 C.3   327  MET327      0.0413
    220  CG        87.7450   -2.1210  -38.9560 C.3   327  MET327      0.0598
    221  SD        89.1370   -0.9870  -38.6980 S.3   327  MET327     -0.1393
    222  CE        90.1900   -2.0080  -37.6540 C.3   327  MET327      0.0692
@<TRIPOS>BOND
     1    26    25    2
     2    52    51    2
     3    40    42   ar
     4    40    38   ar
     5    25    24    1
     6    28    27    1
     7    37    38   ar
     8    37    35   ar
     9    42    41   ar
    10     1     2    1
    11    38    36   ar
    12    51    50    1
    13    54    55    1
    14    54    53    1
    15    55    56    1
    16    35    34   ar
    17    29    30    1
    18     4     3    2
    19    27    24    1
    20    24    23    1
    21    41    39   ar
    22    36    34   ar
    23    36    39   ar
    24     2     3    1
    25     2     5    1
    26    34    33    1
    27     3     8   am
    28    50    53    1
    29    50    49    1
    30    31    30    1
    31    31    32    2
    32    30    33    1
    33    46    45    2
    34    23    18   am
    35     7     5    1
    36    11    10    2
    37     6     5    1
    38    43    44    1
    39    49    45   am
    40    45    44    1
    41     8     9    1
    42    18    19    2
    43    18    17    1
    44    10     9    1
    45    10    16   am
    46   168   169    1
    47     9    12    1
    48    44    47    1
    49    16    17    1
    50    17    20    1
    51   169   170    1
    52   169   172    1
    53   200   199    2
    54   171   170    2
    55   203   205   ar
    56   203   202   ar
    57   205   207   ar
    58    47    48    1
    59    14    13    1
    60   201   202    1
    61   201   198    1
    62   174   176   ar
    63   174   173   ar
    64   176   178   ar
    65    12    13    1
    66   202   204   ar
    67   199   198    1
    68   199   208   am
    69   207   206   ar
    70   173   172    1
    71   173   175   ar
    72    13    15    1
    73   178   177   ar
    74    20    21    1
    75    20    22    1
    76   198   197    1
    77   214   212    1
    78   204   206   ar
    79   209   208    1
    80   209   212    1
    81   209   210    1
    82   175   177   ar
    83   211   210    2
    84   212   213    1
    85   210   215   am
    86   187   188   ar
    87   187   185   ar
    88   188   186   ar
    89   215   216    1
    90   217   218    2
    91   217   216    1
    92   185   184   ar
    93   182   181    2
    94   216   219    1
    95   192   191    2
    96   186   184   ar
    97    79    78    1
    98   191   190    1
    99   184   183    1
   100   162   161    2
   101   181   189   am
   102   181   180    1
   103   190   189    1
   104   190   193    1
   105    78    77   ar
   106    78    76   ar
   107   219   220    1
   108   166   167    1
   109   166   165    1
   110   195   194   ar
   111    77    75   ar
   112    76    74   ar
   113   180   183    1
   114   180   179    1
   115   220   221    1
   116   164   165    1
   117   164   163    1
   118   161   160    1
   119   221   222    1
   120    67    65    1
   121    75    73   ar
   122    74    73   ar
   123   193   194    1
   124   194   196   ar
   125    73    72    1
   126    65    66    1
   127    65    64    2
   128   160   163    1
   129   160   159    1
   130    63    64    1
   131    63    62    1
   132    72    69    1
   133   149   148    1
   134    62    61    1
   135    71    70    2
   136    61    58    1
   137    69    70    1
   138    69    68    1
   139   157   156    2
   140   153   152    2
   141    70    80   am
   142    58    57    1
   143    58    59    1
   144    88    87    1
   145   148   146   ar
   146   148   147   ar
   147   146   144   ar
   148   156   158   am
   149   156   155    1
   150    60    59    2
   151   147   145   ar
   152   152   151    1
   153    87    86    1
   154    80    81    1
   155    98    97    1
   156   141   140    2
   157   151   154    1
   158   151   150    1
   159   144   143   ar
   160    81    82    1
   161    81    84    1
   162    86    85    1
   163   154   155    1
   164   145   143   ar
   165    85    84    1
   166   140   150   am
   167   140   139    1
   168    83    82    2
   169   143   142    1
   170    97    96    2
   171    97    99    1
   172    96    95    1
   173   137   136    1
   174   139   142    1
   175   139   138    1
   176   135   136   ar
   177   135   133   ar
   178   136   134   ar
   179    95    94    1
   180   133   131   ar
   181   129   128    2
   182   134   132   ar
   183    94    93    1
   184   131   132   ar
   185   131   130    1
   186   128   127    1
   187   127   130    1
   188   127   126    1
   189    93    90    1
   190   123   122    2
   191    90    89    1
   192    90    91    1
   193   126   122   am
   194   122   121    1
   195   108   110   ar
   196   108   106   ar
   197   111   112    1
   198   110   109   ar
   199   112   113    1
   200   125   124    1
   201   106   105   ar
   202   114   113    2
   203    91    92    2
   204    91   100   am
   205   121   124    1
   206   121   120    1
   207   109   107   ar
   208   100   101    1
   209   105   107   ar
   210   105   104    1
   211   118   117    2
   212   104   101    1
   213   101   102    1
   214   117   116    1
   215   119   116    1
   216   103   102    2
   217   116   115    1
