@<TRIPOS>MOLECULE
tmp/2vavB00.pdb
 177 172 0 0 0
SMALL
GASTEIGER

@<TRIPOS>ATOM
      1  N         53.5620   12.8430   29.8990 N.3    53  THR53      -0.1203
      2  CA        53.2690   12.7700   31.3280 C.3    53  THR53       0.1994
      3  C         53.5970   11.3740   31.8520 C.2    53  THR53       0.2618
      4  O         53.8410   10.4550   31.0730 O.2    53  THR53      -0.2717
      5  CB        51.7920   13.0910   31.6430 C.3    53  THR53       0.1784
      6  OG1       50.9150   12.1690   30.9780 O.3    53  THR53      -0.2211
      7  CG2       51.4340   14.5150   31.2310 C.3    53  THR53       0.0376
      8  N         53.5800   11.2080   33.1720 N.am   54  LEU54      -0.1965
      9  CA        53.9420    9.9240   33.7950 C.3    54  LEU54       0.1728
     10  C         53.4850    8.6620   33.0510 C.2    54  LEU54       0.2617
     11  O         54.3190    7.8110   32.7210 O.2    54  LEU54      -0.2715
     12  CB        53.4930    9.9000   35.2500 C.3    54  LEU54       0.0311
     13  CG        53.7580    8.6670   36.0800 C.3    54  LEU54       0.0022
     14  CD1       55.2260    8.4860   36.2770 C.3    54  LEU54       0.0001
     15  CD2       53.0630    8.8450   37.4120 C.3    54  LEU54       0.0001
     16  N         52.1810    8.5410   32.7930 N.am   55  THR55      -0.1937
     17  CA        51.6060    7.2490   32.3560 C.3    55  THR55       0.2028
     18  C         51.1760    7.2590   30.8900 C.2    55  THR55       0.2642
     19  O         50.5560    6.3190   30.4020 O.2    55  THR55      -0.2714
     20  CB        50.4100    6.8210   33.2130 C.3    55  THR55       0.1808
     21  OG1       49.3760    7.7830   33.0810 O.3    55  THR55      -0.2208
     22  CG2       50.7800    6.7210   34.6700 C.3    55  THR55       0.0379
     23  N         51.5400    8.3210   30.1890 N.am   56  SER56      -0.1949
     24  CA        51.1340    8.5080   28.8100 C.3    56  SER56       0.1924
     25  C         52.1400    7.8820   27.8110 C.2    56  SER56       0.2314
     26  O         53.2550    7.5130   28.1870 O.2    56  SER56      -0.2863
     27  CB        50.9150   10.0120   28.5710 C.3    56  SER56       0.2116
     28  OG        51.7530   10.4760   27.5590 O.3    56  SER56      -0.2180
     29  N         45.7920   12.8320   24.3870 N.3    63  TRP63      -0.1241
     30  CA        45.3010   13.5960   25.5350 C.3    63  TRP63       0.1605
     31  C         45.3790   15.1150   25.3440 C.2    63  TRP63       0.2264
     32  O         44.7710   15.8590   26.1030 O.2    63  TRP63      -0.2867
     33  CB        46.0210   13.1790   26.8170 C.3    63  TRP63       0.0550
     34  CG        47.5040   13.0840   26.6390 C.ar   63  TRP63       0.0003
     35  CD1       48.2180   12.0330   26.1150 C.ar   63  TRP63       0.0946
     36  CD2       48.4570   14.0910   26.9640 C.ar   63  TRP63       0.0152
     37  NE1       49.5630   12.3340   26.1030 N.ar   63  TRP63      -0.2442
     38  CE2       49.7340   13.5860   26.6360 C.ar   63  TRP63       0.0810
     39  CE3       48.3530   15.3670   27.5130 C.ar   63  TRP63       0.0012
     40  CZ2       50.8950   14.3230   26.8180 C.ar   63  TRP63       0.0191
     41  CZ3       49.5100   16.0810   27.7410 C.ar   63  TRP63       0.0001
     42  CH2       50.7700   15.5610   27.3840 C.ar   63  TRP63       0.0015
     43  N         55.4100   15.7260   34.9210 N.3   142  MET142     -0.1245
     44  CA        56.7430   15.1220   34.7520 C.3   142  MET142      0.1570
     45  C         57.4570   15.7400   33.5600 C.2   142  MET142      0.2261
     46  O         58.6460   16.0480   33.6280 O.2   142  MET142     -0.2867
     47  CB        56.6540   13.6140   34.5440 C.3   142  MET142      0.0387
     48  CG        57.9570   13.0120   34.1140 C.3   142  MET142      0.0595
     49  SD        58.0910   11.1880   34.1830 S.3   142  MET142     -0.1393
     50  CE        58.5410   11.0540   35.9180 C.3   142  MET142      0.0692
     51  N         46.4750    4.3470   41.4870 N.3   210  ARG210     -0.1245
     52  CA        45.9290    5.2680   40.4780 C.3   210  ARG210      0.1563
     53  C         44.7510    6.0700   40.9970 C.2   210  ARG210      0.2260
     54  O         44.6660    7.2320   40.6760 O.2   210  ARG210     -0.2867
     55  CB        45.5400    4.5160   39.2160 C.3   210  ARG210      0.0307
     56  CG        45.0180    5.3690   38.0730 C.3   210  ARG210      0.0489
     57  CD        46.1230    6.2020   37.4350 C.3   210  ARG210      0.2205
     58  NE        45.6630    6.7470   36.1600 N.pl3 210  ARG210     -0.0865
     59  CZ        46.3430    7.6090   35.4150 C.cat 210  ARG210      0.5346
     60  NH1       45.8080    8.0440   34.2820 N.pl3 210  ARG210      0.1354
     61  NH2       47.5360    8.0550   35.8300 N.pl3 210  ARG210      0.1354
     62  N         44.9090    9.9280   40.9850 N.3   214  ASN214     -0.1240
     63  CA        43.8710   10.6800   40.3000 C.3   214  ASN214      0.1653
     64  C         43.2490   11.7660   41.1470 C.2   214  ASN214      0.2266
     65  O         42.9420   12.8160   40.6250 O.2   214  ASN214     -0.2867
     66  CB        42.7810    9.7830   39.6840 C.3   214  ASN214      0.1155
     67  CG        43.2180    9.1070   38.3610 C.2   214  ASN214      0.2627
     68  OD1       44.0640    9.6110   37.6160 O.2   214  ASN214     -0.2716
     69  ND2       42.6010    7.9830   38.0580 N.am  214  ASN214     -0.0877
     70  N         45.3980   14.7620   41.5620 N.3   217  TYR217     -0.1227
     71  CA        45.3570   15.5630   40.3470 C.3   217  TYR217      0.1736
     72  C         44.1430   16.4930   40.3170 C.2   217  TYR217      0.2595
     73  O         44.0600   17.3870   39.4640 O.2   217  TYR217     -0.2718
     74  CB        45.3530   14.7110   39.1000 C.3   217  TYR217      0.0548
     75  CG        46.5060   13.7430   38.9280 C.ar  217  TYR217     -0.0200
     76  CD1       47.7770   13.9760   39.4750 C.ar  217  TYR217     -0.0009
     77  CD2       46.3390   12.6200   38.1420 C.ar  217  TYR217     -0.0009
     78  CE1       48.8210   13.0650   39.2710 C.ar  217  TYR217      0.0417
     79  CE2       47.3610   11.7200   37.9280 C.ar  217  TYR217      0.0417
     80  CZ        48.5910   11.9390   38.4850 C.ar  217  TYR217      0.1957
     81  OH        49.5590   10.9920   38.2290 O.3   217  TYR217     -0.2866
     82  N         43.2110   16.2910   41.2420 N.am  218  LYS218     -0.1980
     83  CA        41.9940   17.0890   41.3390 C.3   218  LYS218      0.1596
     84  C         42.1210   18.2450   42.3480 C.2   218  LYS218      0.2287
     85  O         43.1390   18.3940   43.0160 O.2   218  LYS218     -0.2864
     86  CB        40.8270   16.1940   41.7280 C.3   218  LYS218      0.0298
     87  CG        40.4160   15.2010   40.6590 C.3   218  LYS218      0.0038
     88  CD        39.9620   15.9280   39.4280 C.3   218  LYS218      0.0206
     89  CE        39.6350   14.9780   38.3090 C.3   218  LYS218      0.1093
     90  NZ        39.1100   15.7550   37.1110 N.3   218  LYS218     -0.1314
     91  N         31.4660   18.3910   41.1130 N.3   226  ARG226     -0.1245
     92  CA        31.1250   17.1550   40.4470 C.3   226  ARG226      0.1563
     93  C         30.1930   16.3050   41.3120 C.2   226  ARG226      0.2260
     94  O         29.3040   15.6440   40.7990 O.2   226  ARG226     -0.2867
     95  CB        32.3950   16.3920   40.0450 C.3   226  ARG226      0.0307
     96  CG        32.1410   15.3240   38.9880 C.3   226  ARG226      0.0489
     97  CD        33.4070   14.6940   38.4090 C.3   226  ARG226      0.2205
     98  NE        34.1940   15.6370   37.6190 N.pl3 226  ARG226     -0.0865
     99  CZ        35.1540   15.2910   36.7580 C.cat 226  ARG226      0.5346
    100  NH1       35.8180   16.2390   36.0940 N.pl3 226  ARG226      0.1354
    101  NH2       35.4500   14.0070   36.5500 N.pl3 226  ARG226      0.1354
    102  N         32.7910    6.2970   40.3020 N.3   243  TYR243     -0.1241
    103  CA        33.7320    7.2360   39.7030 C.3   243  TYR243      0.1605
    104  C         35.1880    6.8290   40.0140 C.2   243  TYR243      0.2264
    105  O         36.0440    6.7880   39.1290 O.2   243  TYR243     -0.2867
    106  CB        33.4570    8.6620   40.1980 C.3   243  TYR243      0.0534
    107  CG        34.5310    9.6490   39.8230 C.ar  243  TYR243     -0.0201
    108  CD1       35.4780   10.0540   40.7540 C.ar  243  TYR243     -0.0009
    109  CD2       34.6160   10.1650   38.5220 C.ar  243  TYR243     -0.0009
    110  CE1       36.5000   10.9290   40.4060 C.ar  243  TYR243      0.0417
    111  CE2       35.6340   11.0580   38.1620 C.ar  243  TYR243      0.0417
    112  CZ        36.5690   11.4400   39.1100 C.ar  243  TYR243      0.1957
    113  OH        37.5630   12.3340   38.7600 O.3   243  TYR243     -0.2866
    114  N         37.7800    4.6450   36.1990 N.3   247  GLN247     -0.1245
    115  CA        38.9860    5.0030   35.4720 C.3   247  GLN247      0.1566
    116  C         40.2280    4.3090   36.0230 C.2   247  GLN247      0.2260
    117  O         41.1350    3.9920   35.2670 O.2   247  GLN247     -0.2867
    118  CB        39.1750    6.5140   35.4720 C.3   247  GLN247      0.0367
    119  CG        38.8490    7.2120   36.8210 C.3   247  GLN247      0.0905
    120  CD        38.4070    8.6570   36.6260 C.2   247  GLN247      0.2608
    121  OE1       37.3870    8.9210   35.9780 O.2   247  GLN247     -0.2717
    122  NE2       39.1750    9.5950   37.1620 N.am  247  GLN247     -0.0878
    123  N         61.0040   10.5650   39.4680 N.3   267  PHE267     -0.1241
    124  CA        60.6520   11.8170   40.1270 C.3   267  PHE267      0.1605
    125  C         61.6130   12.1190   41.2770 C.2   267  PHE267      0.2264
    126  O         61.8370   13.2750   41.6090 O.2   267  PHE267     -0.2867
    127  CB        59.2580   11.7150   40.7540 C.3   267  PHE267      0.0534
    128  CG        58.0890   11.9470   39.8140 C.ar  267  PHE267     -0.0203
    129  CD1       57.9760   13.0860   39.0650 C.ar  267  PHE267     -0.0042
    130  CD2       57.0010   11.0890   39.8370 C.ar  267  PHE267     -0.0042
    131  CE1       56.8330   13.3020   38.2540 C.ar  267  PHE267     -0.0003
    132  CE2       55.8700   11.3130   39.0500 C.ar  267  PHE267     -0.0003
    133  CZ        55.7950   12.4080   38.2480 C.ar  267  PHE267     -0.0000
    134  N         45.7290   19.7990   39.4640 N.3   328  HIS328     -0.1226
    135  CA        46.8600   19.4690   38.6220 C.3   328  HIS328      0.1752
    136  C         46.4590   19.0980   37.1850 C.2   328  HIS328      0.2596
    137  O         47.1480   19.4590   36.2310 O.2   328  HIS328     -0.2718
    138  CB        47.6760   18.3750   39.2910 C.3   328  HIS328      0.0759
    139  CG        48.9330   18.0510   38.5680 C.ar  328  HIS328      0.0818
    140  ND1       49.9400   18.9730   38.3840 N.ar  328  HIS328     -0.2268
    141  CD2       49.3450   16.9100   37.9700 C.ar  328  HIS328      0.1154
    142  CE1       50.9180   18.4200   37.6880 C.ar  328  HIS328      0.1986
    143  NE2       50.5850   17.1670   37.4290 N.ar  328  HIS328     -0.2212
    144  N         45.3960   18.3110   37.0650 N.am  329  ASP329     -0.1974
    145  CA        44.5480   18.1310   35.8710 C.3   329  ASP329      0.1709
    146  C         44.3980   19.2490   34.8570 C.2   329  ASP329      0.2293
    147  O         44.0370   19.0090   33.7150 O.2   329  ASP329     -0.2864
    148  CB        43.1200   17.9270   36.3880 C.3   329  ASP329      0.1436
    149  CG        42.7180   16.5130   36.3560 C.2   329  ASP329      0.3671
    150  OD1       43.5360   15.6480   35.9580 O.co2 329  ASP329     -0.2456
    151  OD2       41.5790   16.2400   36.7230 O.co2 329  ASP329     -0.2456
    152  N         45.7960   21.1440   32.9400 N.3   331  PHE331     -0.1227
    153  CA        46.4860   21.3460   31.6540 C.3   331  PHE331      0.1736
    154  C         45.8440   20.4910   30.6120 C.2   331  PHE331      0.2595
    155  O         46.0250   20.6840   29.4280 O.2   331  PHE331     -0.2718
    156  CB        48.0170   21.1500   31.7470 C.3   331  PHE331      0.0547
    157  CG        48.4320   19.7660   32.1280 C.ar  331  PHE331     -0.0202
    158  CD1       48.5310   18.7790   31.1610 C.ar  331  PHE331     -0.0042
    159  CD2       48.7410   19.4570   33.4400 C.ar  331  PHE331     -0.0042
    160  CE1       48.9080   17.5120   31.4910 C.ar  331  PHE331     -0.0003
    161  CE2       49.0940   18.1930   33.7870 C.ar  331  PHE331     -0.0003
    162  CZ        49.1880   17.2210   32.8170 C.ar  331  PHE331     -0.0000
    163  N         45.0210   19.5730   31.0840 N.am  332  VAL332     -0.1966
    164  CA        44.2200   18.7430   30.2180 C.3   332  VAL332      0.1727
    165  C         42.7500   19.2040   30.1970 C.2   332  VAL332      0.2616
    166  O         42.1650   19.3000   29.1240 O.2   332  VAL332     -0.2715
    167  CB        44.3450   17.2650   30.5830 C.3   332  VAL332      0.0290
    168  CG1       43.2620   16.4620   29.8860 C.3   332  VAL332      0.0023
    169  CG2       45.6800   16.7500   30.1540 C.3   332  VAL332      0.0023
    170  N         42.1790   19.5080   31.3660 N.am  333  MET333     -0.1977
    171  CA        40.7850   19.9610   31.4670 C.3   333  MET333      0.1605
    172  C         40.6160   21.2910   30.7640 C.2   333  MET333      0.2287
    173  O         39.5600   21.5420   30.2220 O.2   333  MET333     -0.2864
    174  CB        40.3340   20.1240   32.9240 C.3   333  MET333      0.0413
    175  CG        40.5240   18.9130   33.8200 C.3   333  MET333      0.0598
    176  SD        39.6910   17.4770   33.1610 S.3   333  MET333     -0.1393
    177  CE        37.9850   18.0880   33.2990 C.3   333  MET333      0.0692
@<TRIPOS>BOND
     1    29    30    1
     2    31    30    1
     3    31    32    2
     4    30    33    1
     5    37    35   ar
     6    37    38   ar
     7    35    34   ar
     8    38    40   ar
     9    38    36   ar
    10    34    33    1
    11    34    36   ar
    12    40    42   ar
    13    36    39   ar
    14    42    41   ar
    15    39    41   ar
    16    28    27    1
    17    25    26    2
    18    25    24    1
    19    27    24    1
    20    24    23    1
    21   166   165    2
    22   155   154    2
    23   168   167    1
    24     1     2    1
    25   169   167    1
    26    23    18   am
    27   165   164    1
    28   165   170   am
    29   164   167    1
    30   164   163    1
    31   173   172    2
    32    19    18    2
    33   154   163   am
    34   154   153    1
    35   172   171    1
    36    18    17    1
    37     6     5    1
    38     4     3    2
    39   158   160   ar
    40   158   157   ar
    41     7     5    1
    42     2     5    1
    43     2     3    1
    44   170   171    1
    45   171   174    1
    46   160   162   ar
    47   153   156    1
    48   153   152    1
    49   156   157    1
    50     3     8   am
    51   157   159   ar
    52    17    16    1
    53    17    20    1
    54    11    10    2
    55    16    10   am
    56   162   161   ar
    57   174   175    1
    58    10     9    1
    59    21    20    1
    60   176   177    1
    61   176   175    1
    62     8     9    1
    63    20    22    1
    64   159   161   ar
    65    45    46    2
    66    45    44    1
    67   147   146    2
    68     9    12    1
    69    48    49    1
    70    48    47    1
    71    49    50    1
    72    60    59    1
    73    47    44    1
    74    44    43    1
    75   146   145    1
    76    12    13    1
    77   117   116    2
    78    59    61    1
    79    59    58    2
    80   115   118    1
    81   115   116    1
    82   115   114    1
    83   118   119    1
    84   145   148    1
    85   145   144    1
    86   150   149   ar
    87   121   120    2
    88    13    14    1
    89    13    15    1
    90   100    99    1
    91    58    57    1
    92   137   136    2
    93   149   148    1
    94   149   151   ar
    95   101    99    1
    96   120   119    1
    97   120   122   am
    98    99    98    2
    99   144   136   am
   100    90    89    1
   101   136   135    1
   102   143   142   ar
   103   143   141   ar
   104    57    56    1
   105    68    67    2
   106    98    97    1
   107   142   140   ar
   108    79    77   ar
   109    79    80   ar
   110   141   139   ar
   111    69    67   am
   112    56    55    1
   113    77    75   ar
   114   111   109   ar
   115   111   112   ar
   116    81    80    1
   117   133   131   ar
   118   133   132   ar
   119   131   129   ar
   120    89    88    1
   121    67    66    1
   122   140   139   ar
   123    97    96    1
   124    80    78   ar
   125   109   107   ar
   126   139   138    1
   127   135   138    1
   128   135   134    1
   129   113   112    1
   130    75    74    1
   131    75    76   ar
   132    96    95    1
   133   132   130   ar
   134   129   128   ar
   135    74    71    1
   136   112   110   ar
   137   105   104    2
   138    55    52    1
   139    78    76   ar
   140    88    87    1
   141    73    72    2
   142   123   124    1
   143    66    63    1
   144   103   104    1
   145   103   106    1
   146   103   102    1
   147   128   130   ar
   148   128   127    1
   149   107   106    1
   150   107   108   ar
   151    95    92    1
   152   124   127    1
   153   124   125    1
   154    63    62    1
   155    63    64    1
   156    72    71    1
   157    72    82   am
   158    71    70    1
   159   110   108   ar
   160    92    91    1
   161    92    93    1
   162    52    53    1
   163    52    51    1
   164    65    64    2
   165    87    86    1
   166    54    53    2
   167    94    93    2
   168    82    83    1
   169   125   126    2
   170    83    86    1
   171    83    84    1
   172    84    85    2
