@<TRIPOS>MOLECULE
tmp/2vawA00.pdb
 179 168 0 0 0
SMALL
GASTEIGER

@<TRIPOS>ATOM
      1  N        -36.8600    6.1770   -7.8500 N.3    18  VAL18      -0.1231
      2  CA       -37.4950    6.7060   -9.0520 C.3    18  VAL18       0.1692
      3  C        -36.6360    7.7080   -9.8280 C.2    18  VAL18       0.2593
      4  O        -36.0580    8.6370   -9.2610 O.2    18  VAL18      -0.2718
      5  CB       -38.8210    7.4030   -8.7040 C.3    18  VAL18       0.0266
      6  CG1      -39.5250    7.8290   -9.9790 C.3    18  VAL18       0.0020
      7  CG2      -39.6950    6.4820   -7.8740 C.3    18  VAL18       0.0020
      8  N        -36.5780    7.5270  -11.1400 N.am   19  GLY19      -0.1942
      9  CA       -35.8040    8.4370  -11.9600 C.3    19  GLY19       0.2014
     10  C        -34.3360    8.0880  -11.9210 C.2    19  GLY19       0.2639
     11  O        -33.9570    7.0740  -11.3290 O.2    19  GLY19      -0.2714
     12  N        -33.5180    8.9340  -12.5450 N.am   20  GLY20      -0.1939
     13  CA       -32.0870    8.7050  -12.5910 C.3    20  GLY20       0.2014
     14  C        -31.4190    8.7410  -11.2350 C.2    20  GLY20       0.2639
     15  O        -30.9880    7.7120  -10.7170 O.2    20  GLY20      -0.2714
     16  N        -31.3230    9.9340  -10.6620 N.am   21  GLY21      -0.1954
     17  CA       -30.7040   10.0780   -9.3620 C.3    21  GLY21       0.1869
     18  C        -31.1300    8.9780   -8.4170 C.2    21  GLY21       0.2309
     19  O        -30.2950    8.3580   -7.7570 O.2    21  GLY21      -0.2863
     20  N        -29.5870    5.6790   -9.1630 N.3    24  ASN24      -0.1240
     21  CA       -28.2050    5.7260   -8.7150 C.3    24  ASN24       0.1653
     22  C        -28.0920    5.4760   -7.2200 C.2    24  ASN24       0.2266
     23  O        -27.3270    4.6090   -6.7860 O.2    24  ASN24      -0.2867
     24  CB       -27.5880    7.0770   -9.0450 C.3    24  ASN24       0.1155
     25  CG       -27.0310    7.1270  -10.4440 C.2    24  ASN24       0.2627
     26  OD1      -26.4650    8.1340  -10.8560 O.2    24  ASN24      -0.2716
     27  ND2      -27.1830    6.0310  -11.1850 N.am   24  ASN24      -0.0877
     28  N        -37.8060    3.7980  -13.6440 N.3    43  ASN43      -0.1240
     29  CA       -37.4860    4.9480  -14.4740 C.3    43  ASN43       0.1653
     30  C        -38.2510    4.8370  -15.7910 C.2    43  ASN43       0.2266
     31  O        -38.6270    3.7430  -16.2070 O.2    43  ASN43      -0.2867
     32  CB       -35.9770    4.9820  -14.7230 C.3    43  ASN43       0.1155
     33  CG       -35.4650    6.3630  -15.0940 C.2    43  ASN43       0.2627
     34  OD1      -34.2570    6.5780  -15.1500 O.2    43  ASN43      -0.2716
     35  ND2      -36.3720    7.3020  -15.3500 N.am   43  ASN43      -0.0877
     36  N        -39.1720   10.8590  -19.5000 N.3    70  ALA70      -0.1245
     37  CA       -39.6660   12.2320  -19.3850 C.3    70  ALA70       0.1562
     38  C        -38.5330   13.2470  -19.3640 C.2    70  ALA70       0.2260
     39  O        -37.9240   13.4750  -18.3190 O.2    70  ALA70      -0.2867
     40  CB       -40.4820   12.3720  -18.1210 C.3    70  ALA70       0.0290
     41  N        -36.7130   15.5480  -18.3890 N.3    72  ALA72      -0.1245
     42  CA       -36.6660   16.4680  -17.2700 C.3    72  ALA72       0.1562
     43  C        -38.0110   17.1370  -17.0310 C.2    72  ALA72       0.2260
     44  O        -38.1020   18.1010  -16.2730 O.2    72  ALA72      -0.2867
     45  CB       -35.6010   17.5140  -17.5150 C.3    72  ALA72       0.0290
     46  N        -35.8290    9.4030   -4.2420 N.3   102  THR102     -0.1203
     47  CA       -35.5480    9.9950   -5.5300 C.3   102  THR102      0.1994
     48  C        -34.9960   11.4050   -5.4020 C.2   102  THR102      0.2618
     49  O        -35.1550   12.0530   -4.3710 O.2   102  THR102     -0.2717
     50  CB       -36.8280   10.0390   -6.3660 C.3   102  THR102      0.1784
     51  OG1      -36.5240   10.5010   -7.6880 O.3   102  THR102     -0.2211
     52  CG2      -37.8430   10.9730   -5.7220 C.3   102  THR102      0.0376
     53  N        -34.3270   11.8680   -6.4530 N.am  103  GLY103     -0.1942
     54  CA       -33.8020   13.2180   -6.4500 C.3   103  GLY103      0.2014
     55  C        -34.8510   14.1060   -7.0960 C.2   103  GLY103      0.2639
     56  O        -35.2250   13.8890   -8.2520 O.2   103  GLY103     -0.2714
     57  N        -35.3550   15.0860   -6.3540 N.am  104  MET104     -0.1963
     58  CA       -36.3670   15.9840   -6.9000 C.3   104  MET104      0.1736
     59  C        -35.6750   17.0310   -7.7790 C.2   104  MET104      0.2617
     60  O        -34.5050   17.3610   -7.5510 O.2   104  MET104     -0.2715
     61  CB       -37.1400   16.6820   -5.7740 C.3   104  MET104      0.0427
     62  CG       -37.8550   15.7530   -4.7860 C.3   104  MET104      0.0599
     63  SD       -39.1460   14.6600   -5.4430 S.3   104  MET104     -0.1393
     64  CE       -40.5170   15.7770   -5.6070 C.3   104  MET104      0.0692
     65  N        -36.4000   17.5410   -8.7780 N.am  105  GLY105     -0.1940
     66  CA       -35.8490   18.5360   -9.6850 C.3   105  GLY105      0.2014
     67  C        -35.8510   18.0560  -11.1280 C.2   105  GLY105      0.2639
     68  O        -35.7390   18.8600  -12.0540 O.2   105  GLY105     -0.2714
     69  N        -35.9800   16.7410  -11.3130 N.am  106  GLY106     -0.1939
     70  CA       -35.9990   16.1610  -12.6460 C.3   106  GLY106      0.2014
     71  C        -37.4020   15.8800  -13.1530 C.2   106  GLY106      0.2639
     72  O        -38.3690   16.4460  -12.6530 O.2   106  GLY106     -0.2714
     73  N        -37.5240   14.9890  -14.1330 N.am  107  GLY107     -0.1939
     74  CA       -38.8340   14.6900  -14.6930 C.3   107  GLY107      0.2014
     75  C        -39.4940   13.4210  -14.1980 C.2   107  GLY107      0.2640
     76  O        -40.6150   13.4550  -13.6780 O.2   107  GLY107     -0.2714
     77  N        -38.8040   12.2980  -14.3830 N.am  108  THR108     -0.1936
     78  CA       -39.3030   10.9990  -13.9530 C.3   108  THR108      0.2028
     79  C        -39.5770   11.0910  -12.4550 C.2   108  THR108      0.2643
     80  O        -40.7240   11.1540  -12.0190 O.2   108  THR108     -0.2714
     81  CB       -38.2500    9.8700  -14.1760 C.3   108  THR108      0.1808
     82  OG1      -37.7020    9.9580  -15.4980 O.3   108  THR108     -0.2208
     83  CG2      -38.8880    8.5010  -13.9870 C.3   108  THR108      0.0379
     84  N        -38.4950   11.1240  -11.6840 N.am  109  GLY109     -0.1939
     85  CA       -38.5830   11.1900  -10.2410 C.3   109  GLY109      0.2014
     86  C        -39.5470   12.2090   -9.6930 C.2   109  GLY109      0.2639
     87  O        -40.4540   11.8510   -8.9470 O.2   109  GLY109     -0.2714
     88  N        -39.3590   13.4730  -10.0680 N.am  110  THR110     -0.1950
     89  CA       -40.2110   14.5680   -9.5850 C.3   110  THR110      0.1897
     90  C        -41.7050   14.3100   -9.7180 C.2   110  THR110      0.2313
     91  O        -42.4340   14.3510   -8.7280 O.2   110  THR110     -0.2863
     92  CB       -39.8950   15.8990  -10.3090 C.3   110  THR110      0.1794
     93  OG1      -38.5630   16.3150   -9.9900 O.3   110  THR110     -0.2208
     94  CG2      -40.8650   16.9820   -9.8760 C.3   110  THR110      0.0378
     95  N        -34.0400   14.3080   -2.0940 N.3   132  THR132     -0.1218
     96  CA       -33.1070   15.4210   -2.0500 C.3   132  THR132      0.1862
     97  C        -33.7080   16.6450   -2.7020 C.2   132  THR132      0.2287
     98  O        -34.7950   16.6080   -3.2580 O.2   132  THR132     -0.2866
     99  CB       -31.8090   15.1280   -2.8180 C.3   132  THR132      0.1770
    100  OG1      -32.1190   14.8760   -4.1970 O.3   132  THR132     -0.2211
    101  CG2      -31.0800   13.9510   -2.2220 C.3   132  THR132      0.0375
    102  N        -32.2810   19.8140   -5.2510 N.3   134  PRO134     -0.2102
    103  CA       -31.2030   20.2930   -6.1190 C.3   134  PRO134      0.1504
    104  C        -30.1070   21.0900   -5.4160 C.2   134  PRO134      0.2575
    105  O        -30.3440   21.7510   -4.4070 O.2   134  PRO134     -0.2718
    106  CB       -31.9510   21.1390   -7.1390 C.3   134  PRO134      0.0282
    107  CG       -33.2130   20.3950   -7.3050 C.3   134  PRO134      0.0208
    108  CD       -33.5920   20.0680   -5.8780 C.3   134  PRO134      0.0893
    109  N        -28.8970   21.0080   -5.9440 N.am  135  PHE135     -0.1977
    110  CA       -27.8100   21.7680   -5.3750 C.3   135  PHE135      0.1639
    111  C        -28.0270   23.1530   -5.9200 C.2   135  PHE135      0.2290
    112  O        -28.6430   23.3130   -6.9770 O.2   135  PHE135     -0.2864
    113  CB       -26.4660   21.2550   -5.8590 C.3   135  PHE135      0.0560
    114  CG       -26.0680   19.9550   -5.2530 C.ar  135  PHE135     -0.0200
    115  CD1      -26.3410   18.7580   -5.9000 C.ar  135  PHE135     -0.0042
    116  CD2      -25.4180   19.9240   -4.0330 C.ar  135  PHE135     -0.0042
    117  CE1      -25.9660   17.5440   -5.3370 C.ar  135  PHE135     -0.0003
    118  CE2      -25.0390   18.7240   -3.4620 C.ar  135  PHE135     -0.0003
    119  CZ       -25.3120   17.5260   -4.1150 C.ar  135  PHE135     -0.0000
    120  N        -27.6990   23.9620   -9.5600 N.3   138  GLU138     -0.1245
    121  CA       -28.5260   23.2450  -10.5310 C.3   138  GLU138      0.1567
    122  C        -29.5360   24.1580  -11.2260 C.2   138  GLU138      0.2260
    123  O        -30.2400   23.7410  -12.1430 O.2   138  GLU138     -0.2867
    124  CB       -29.2400   22.0600   -9.8580 C.3   138  GLU138      0.0388
    125  CG       -28.2820   20.9280   -9.4820 C.3   138  GLU138      0.1160
    126  CD       -28.9760   19.6190   -9.1130 C.2   138  GLU138      0.3649
    127  OE1      -29.8430   19.1500   -9.8930 O.co2 138  GLU138     -0.2457
    128  OE2      -28.6350   19.0520   -8.0480 O.co2 138  GLU138     -0.2457
    129  N        -34.6120   24.0840  -11.9240 N.3   142  ARG142     -0.1245
    130  CA       -34.7420   22.7930  -11.2830 C.3   142  ARG142      0.1563
    131  C        -35.1610   22.9100   -9.8220 C.2   142  ARG142      0.2260
    132  O        -36.0460   22.1820   -9.3540 O.2   142  ARG142     -0.2867
    133  CB       -33.4300   22.0240  -11.3950 C.3   142  ARG142      0.0307
    134  CG       -33.6030   20.6550  -12.0170 C.3   142  ARG142      0.0489
    135  CD       -32.2750   20.0360  -12.3560 C.3   142  ARG142      0.2205
    136  NE       -32.4240   18.6740  -12.8530 N.pl3 142  ARG142     -0.0865
    137  CZ       -32.9690   18.3540  -14.0210 C.cat 142  ARG142      0.5346
    138  NH1      -33.0620   17.0790  -14.3830 N.pl3 142  ARG142      0.1354
    139  NH2      -33.4130   19.3070  -14.8300 N.pl3 142  ARG142      0.1354
    140  N        -29.7110   19.3920   -0.5080 N.3   165  ASN165     -0.1240
    141  CA       -28.4010   19.1100   -1.0500 C.3   165  ASN165      0.1653
    142  C        -27.3790   20.1840   -0.7490 C.2   165  ASN165      0.2266
    143  O        -26.1860   19.9090   -0.7410 O.2   165  ASN165     -0.2867
    144  CB       -28.4900   18.8630   -2.5470 C.3   165  ASN165      0.1155
    145  CG       -29.0150   17.4800   -2.8620 C.2   165  ASN165      0.2627
    146  OD1      -28.4650   16.4790   -2.4000 O.2   165  ASN165     -0.2716
    147  ND2      -30.0820   17.4140   -3.6480 N.am  165  ASN165     -0.0877
    148  N        -22.7040   14.3200   -5.5770 N.3   182  PHE182     -0.1241
    149  CA       -23.7240   13.3170   -5.8170 C.3   182  PHE182      0.1605
    150  C        -23.4070   12.0030   -5.1350 C.2   182  PHE182      0.2264
    151  O        -24.3080   11.2870   -4.7100 O.2   182  PHE182     -0.2867
    152  CB       -23.9160   13.1160   -7.3110 C.3   182  PHE182      0.0534
    153  CG       -24.5200   14.2990   -7.9840 C.ar  182  PHE182     -0.0203
    154  CD1      -23.7680   15.0880   -8.8460 C.ar  182  PHE182     -0.0042
    155  CD2      -25.8310   14.6660   -7.7080 C.ar  182  PHE182     -0.0042
    156  CE1      -24.3080   16.2310   -9.4200 C.ar  182  PHE182     -0.0003
    157  CE2      -26.3800   15.8030   -8.2760 C.ar  182  PHE182     -0.0003
    158  CZ       -25.6100   16.5890   -9.1360 C.ar  182  PHE182     -0.0000
    159  N        -24.5990   12.5200   -1.7940 N.3   185  ALA185     -0.1231
    160  CA       -26.0470   12.4310   -1.8180 C.3   185  ALA185      0.1694
    161  C        -26.4240   10.9610   -1.7110 C.2   185  ALA185      0.2592
    162  O        -27.1840   10.5630   -0.8280 O.2   185  ALA185     -0.2718
    163  CB       -26.5770   13.0090   -3.0990 C.3   185  ALA185      0.0304
    164  N        -25.8890   10.1510   -2.6160 N.am  186  ASP186     -0.1974
    165  CA       -26.1490    8.7150   -2.6050 C.3   186  ASP186      0.1709
    166  C        -26.0250    8.1900   -1.1740 C.2   186  ASP186      0.2293
    167  O        -26.9670    7.6490   -0.5980 O.2   186  ASP186     -0.2864
    168  CB       -25.1270    8.0060   -3.4910 C.3   186  ASP186      0.1436
    169  CG       -25.3750    8.2310   -4.9660 C.2   186  ASP186      0.3671
    170  OD1      -24.4260    8.0290   -5.7420 O.co2 186  ASP186     -0.2456
    171  OD2      -26.5080    8.5910   -5.3580 O.co2 186  ASP186     -0.2456
    172  N        -28.6560    9.4340    1.4300 N.3   189  LEU189     -0.1245
    173  CA       -29.9490    8.8050    1.2000 C.3   189  LEU189      0.1561
    174  C        -29.8900    7.3780    1.7300 C.2   189  LEU189      0.2260
    175  O        -30.8290    6.9000    2.3580 O.2   189  LEU189     -0.2867
    176  CB       -30.2830    8.8010   -0.2920 C.3   189  LEU189      0.0270
    177  CG       -30.6100   10.1450   -0.9450 C.3   189  LEU189      0.0019
    178  CD1      -30.6380    9.9740   -2.4560 C.3   189  LEU189      0.0001
    179  CD2      -31.9440   10.6680   -0.4170 C.3   189  LEU189      0.0001
@<TRIPOS>BOND
     1    36    37    1
     2    37    38    1
     3    37    40    1
     4    38    39    2
     5    41    42    1
     6    45    42    1
     7    42    43    1
     8    43    44    2
     9    31    30    2
    10    30    29    1
    11    82    81    1
    12    35    33   am
    13    34    33    2
    14    33    32    1
    15   139   137    1
    16    32    29    1
    17    74    75    1
    18    74    73    1
    19    29    28    1
    20   138   137    1
    21    77    75   am
    22    77    78    1
    23    75    76    2
    24    81    83    1
    25    81    78    1
    26    73    71   am
    27   137   136    2
    28    78    79    1
    29    71    72    2
    30    71    70    1
    31   136   135    1
    32    70    69    1
    33    13    12    1
    34    13    14    1
    35    12    10   am
    36    79    80    2
    37    79    84   am
    38   135   134    1
    39   123   122    2
    40    68    67    2
    41   134   133    1
    42     9    10    1
    43     9     8    1
    44   129   130    1
    45    10    11    2
    46    84    85    1
    47   133   130    1
    48    69    67   am
    49   130   131    1
    50    14    15    2
    51    14    16   am
    52   122   121    1
    53    27    25   am
    54     8     3   am
    55    67    66    1
    56    26    25    2
    57    16    17    1
    58   121   124    1
    59   121   120    1
    60    25    24    1
    61    92    93    1
    62    92    94    1
    63    92    89    1
    64    85    86    1
    65    88    86   am
    66    88    89    1
    67     6     5    1
    68   127   126   ar
    69   124   125    1
    70     3     4    2
    71     3     2    1
    72   131   132    2
    73    90    89    1
    74    90    91    2
    75    86    87    2
    76    66    65    1
    77   125   126    1
    78   156   158   ar
    79   156   154   ar
    80    17    18    1
    81    20    21    1
    82   158   157   ar
    83   126   128   ar
    84     2     5    1
    85     2     1    1
    86    24    21    1
    87   154   153   ar
    88    65    59   am
    89    21    22    1
    90     5     7    1
    91    18    19    2
    92   157   155   ar
    93    56    55    2
    94   153   155   ar
    95   153   152    1
    96    59    60    2
    97    59    58    1
    98    51    50    1
    99   152   149    1
   100   107   106    1
   101   107   108    1
   102    22    23    2
   103   106   103    1
   104    55    54    1
   105    55    57   am
   106   112   111    2
   107    58    57    1
   108    58    61    1
   109    53    54    1
   110    53    48   am
   111    50    52    1
   112    50    47    1
   113   103   104    1
   114   103   102    1
   115   109   104   am
   116   109   110    1
   117   111   110    1
   118   115   117   ar
   119   115   114   ar
   120   108   102    1
   121   113   110    1
   122   113   114    1
   123   149   148    1
   124   149   150    1
   125    61    62    1
   126   170   169   ar
   127    64    63    1
   128    47    48    1
   129    47    46    1
   130    63    62    1
   131   104   105    2
   132    48    49    2
   133   171   169   ar
   134   117   119   ar
   135   114   116   ar
   136   150   151    2
   137   169   168    1
   138   100    99    1
   139   119   118   ar
   140   116   118   ar
   141   147   145   am
   142   168   165    1
   143    98    97    2
   144   163   160    1
   145   145   144    1
   146   145   146    2
   147    99   101    1
   148    99    96    1
   149    97    96    1
   150   164   165    1
   151   164   161   am
   152   165   166    1
   153   144   141    1
   154   178   177    1
   155    95    96    1
   156   160   159    1
   157   160   161    1
   158   161   162    2
   159   166   167    2
   160   141   142    1
   161   141   140    1
   162   177   179    1
   163   177   176    1
   164   142   143    2
   165   176   173    1
   166   173   172    1
   167   173   174    1
   168   174   175    2
