@<TRIPOS>MOLECULE
tmp/2vb6A00.pdb
 185 185 0 0 0
SMALL
GASTEIGER

@<TRIPOS>ATOM
      1  N         21.5510   34.8590   57.6110 N.3    83  ILE83      -0.1231
      2  CA        21.5280   34.0910   58.8560 C.3    83  ILE83       0.1692
      3  C         22.6230   34.4300   59.8960 C.2    83  ILE83       0.2592
      4  O         22.5000   34.0660   61.0750 O.2    83  ILE83      -0.2718
      5  CB        21.5450   32.5730   58.5520 C.3    83  ILE83       0.0266
      6  CG1       22.9040   32.1440   57.9810 C.3    83  ILE83       0.0019
      7  CG2       20.4250   32.2290   57.5890 C.3    83  ILE83       0.0020
      8  CD1       23.1800   30.6450   58.1430 C.3    83  ILE83       0.0001
      9  N         23.6670   35.1380   59.4560 N.am   84  TYR84      -0.1976
     10  CA        24.8330   35.4470   60.2850 C.3    84  TYR84       0.1639
     11  C         24.8590   36.9110   60.6230 C.2    84  TYR84       0.2290
     12  O         24.6860   37.7480   59.7490 O.2    84  TYR84      -0.2864
     13  CB        26.1430   35.1230   59.5480 C.3    84  TYR84       0.0560
     14  CG        26.3450   33.6720   59.2020 C.ar   84  TYR84      -0.0198
     15  CD1       26.4690   33.2500   57.8710 C.ar   84  TYR84      -0.0009
     16  CD2       26.4310   32.7180   60.2010 C.ar   84  TYR84      -0.0009
     17  CE1       26.6560   31.8970   57.5620 C.ar   84  TYR84       0.0417
     18  CE2       26.6200   31.3870   59.9120 C.ar   84  TYR84       0.0417
     19  CZ        26.7310   30.9780   58.5990 C.ar   84  TYR84       0.1957
     20  OH        26.9250   29.6390   58.3740 O.3    84  TYR84      -0.2866
     21  N         19.5470   29.1000   62.1010 N.3    95  ASN95      -0.1226
     22  CA        19.3500   27.9770   61.1830 C.3    95  ASN95       0.1770
     23  C         18.3090   28.2830   60.0810 C.2    95  ASN95       0.2439
     24  O         17.1480   28.5330   60.3850 O.2    95  ASN95      -0.2733
     25  CB        18.9760   26.7330   61.9790 C.3    95  ASN95       0.1168
     26  CG        18.9420   25.4760   61.1370 C.2    95  ASN95       0.2627
     27  OD1       18.9680   25.5180   59.9050 O.2    95  ASN95      -0.2716
     28  ND2       18.8770   24.3480   61.8020 N.am   95  ASN95      -0.0877
     29  N         18.7330   28.3090   58.7970 N.am   96  PRO96      -0.2718
     30  CA        17.7570   28.6630   57.7390 C.3    96  PRO96       0.1535
     31  C         16.7850   27.5340   57.3750 C.2    96  PRO96       0.2599
     32  O         15.6970   27.8140   56.8650 O.2    96  PRO96      -0.2715
     33  CB        18.6360   28.9980   56.5310 C.3    96  PRO96       0.0310
     34  CG        19.9130   28.2190   56.7600 C.3    96  PRO96       0.0237
     35  CD        20.0860   28.0400   58.2550 C.3    96  PRO96       0.0939
     36  N         17.1800   26.2880   57.6380 N.am   97  TYR97      -0.1960
     37  CA        16.4030   25.0840   57.2830 C.3    97  TYR97       0.1771
     38  C         16.1920   24.9100   55.7430 C.2    97  TYR97       0.2620
     39  O         15.3100   24.1840   55.2910 O.2    97  TYR97      -0.2715
     40  CB        15.0790   25.0040   58.0750 C.3    97  TYR97       0.0574
     41  CG        15.2260   24.4010   59.4610 C.ar   97  TYR97      -0.0198
     42  CD1       14.8280   25.1080   60.6060 C.ar   97  TYR97      -0.0009
     43  CD2       15.7710   23.1200   59.6320 C.ar   97  TYR97      -0.0009
     44  CE1       14.9600   24.5370   61.8860 C.ar   97  TYR97       0.0417
     45  CE2       15.9180   22.5550   60.8870 C.ar   97  TYR97       0.0417
     46  CZ        15.5120   23.2670   62.0160 C.ar   97  TYR97       0.1957
     47  OH        15.6570   22.6850   63.2660 O.3    97  TYR97      -0.2866
     48  N         17.0050   25.6160   54.9620 N.am   98  PHE98      -0.1960
     49  CA        17.0990   25.3900   53.5260 C.3    98  PHE98       0.1771
     50  C         18.4770   25.8200   53.0300 C.2    98  PHE98       0.2620
     51  O         19.2120   26.5200   53.7420 O.2    98  PHE98      -0.2715
     52  CB        15.9510   26.0720   52.7670 C.3    98  PHE98       0.0574
     53  CG        16.1930   27.5080   52.4240 C.ar   98  PHE98      -0.0200
     54  CD1       16.4560   27.8830   51.1030 C.ar   98  PHE98      -0.0042
     55  CD2       16.1210   28.5020   53.4000 C.ar   98  PHE98      -0.0042
     56  CE1       16.6640   29.2120   50.7680 C.ar   98  PHE98      -0.0003
     57  CE2       16.3100   29.8500   53.0640 C.ar   98  PHE98      -0.0003
     58  CZ        16.5850   30.1990   51.7490 C.ar   98  PHE98      -0.0000
     59  N         18.8230   25.3900   51.8180 N.am   99  ASP99      -0.1957
     60  CA        20.1340   25.6620   51.2400 C.3    99  ASP99       0.1840
     61  C         20.1270   27.0100   50.5680 C.2    99  ASP99       0.2621
     62  O         19.6100   27.1410   49.4450 O.2    99  ASP99      -0.2715
     63  CB        20.4920   24.5930   50.2050 C.3    99  ASP99       0.1450
     64  CG        20.7580   23.2370   50.8220 C.2    99  ASP99       0.3671
     65  OD1       20.6040   22.2180   50.1120 O.co2  99  ASP99      -0.2456
     66  OD2       21.1360   23.1740   52.0120 O.co2  99  ASP99      -0.2456
     67  N         20.6840   28.0080   51.2570 N.am  100  ILE100     -0.1977
     68  CA        20.8740   29.3570   50.7090 C.3   100  ILE100      0.1596
     69  C         22.0100   29.3460   49.6640 C.2   100  ILE100      0.2287
     70  O         23.0750   28.7740   49.8970 O.2   100  ILE100     -0.2864
     71  CB        21.1670   30.4110   51.8450 C.3   100  ILE100      0.0276
     72  CG1       19.9880   30.5180   52.8200 C.3   100  ILE100      0.0022
     73  CG2       21.4530   31.7950   51.2680 C.3   100  ILE100      0.0022
     74  CD1       20.2680   31.3740   54.0260 C.3   100  ILE100      0.0001
     75  N         28.0880   29.4610   50.5620 N.3   104  TYR104     -0.1241
     76  CA        28.9980   28.3790   50.9450 C.3   104  TYR104      0.1605
     77  C         29.9030   27.8720   49.8190 C.2   104  TYR104      0.2264
     78  O         30.5590   26.8370   49.9790 O.2   104  TYR104     -0.2867
     79  CB        28.2330   27.2100   51.5640 C.3   104  TYR104      0.0534
     80  CG        27.4850   27.6090   52.8130 C.ar  104  TYR104     -0.0201
     81  CD1       26.0940   27.5150   52.8740 C.ar  104  TYR104     -0.0009
     82  CD2       28.1660   28.1120   53.9240 C.ar  104  TYR104     -0.0009
     83  CE1       25.3960   27.8940   54.0260 C.ar  104  TYR104      0.0417
     84  CE2       27.4800   28.5070   55.0660 C.ar  104  TYR104      0.0417
     85  CZ        26.0930   28.3900   55.1130 C.ar  104  TYR104      0.1957
     86  OH        25.4160   28.7670   56.2520 O.3   104  TYR104     -0.2866
     87  N         19.5840   21.3500   70.2100 N.3   150  SER150     -0.1202
     88  CA        19.5060   20.3060   69.2040 C.3   150  SER150      0.2020
     89  C         18.7680   20.8300   67.9800 C.2   150  SER150      0.2619
     90  O         17.6370   21.3300   68.0970 O.2   150  SER150     -0.2717
     91  CB        18.8150   19.0560   69.7600 C.3   150  SER150      0.2103
     92  OG        19.4200   18.6490   70.9900 O.3   150  SER150     -0.2182
     93  N         19.4350   20.7620   66.8230 N.am  151  GLY151     -0.1942
     94  CA        18.8890   21.2650   65.5690 C.3   151  GLY151      0.2014
     95  C         19.1820   22.7270   65.2820 C.2   151  GLY151      0.2639
     96  O         18.7520   23.2500   64.2610 O.2   151  GLY151     -0.2714
     97  N         19.9140   23.3930   66.1740 N.am  152  ALA152     -0.1963
     98  CA        20.2870   24.8030   65.9740 C.3   152  ALA152      0.1728
     99  C         21.2340   25.0460   64.7730 C.2   152  ALA152      0.2617
    100  O         21.2470   26.1270   64.1910 O.2   152  ALA152     -0.2715
    101  CB        20.9130   25.3470   67.2450 C.3   152  ALA152      0.0334
    102  N         22.0530   24.0560   64.4330 N.am  153  GLY153     -0.1940
    103  CA        23.0120   24.2070   63.3490 C.3   153  GLY153      0.2014
    104  C         24.4890   24.0880   63.7220 C.2   153  GLY153      0.2639
    105  O         25.3320   24.5630   62.9780 O.2   153  GLY153     -0.2714
    106  N         24.8070   23.4520   64.8520 N.am  154  LYS154     -0.1963
    107  CA        26.2060   23.3210   65.3380 C.3   154  LYS154      0.1728
    108  C         27.0740   22.4620   64.4220 C.2   154  LYS154      0.2617
    109  O         28.1610   22.8880   64.0160 O.2   154  LYS154     -0.2715
    110  CB        26.2780   22.7580   66.7710 C.3   154  LYS154      0.0311
    111  CG        25.5470   23.5450   67.8810 C.3   154  LYS154      0.0038
    112  CD        25.6590   22.8320   69.2670 C.3   154  LYS154      0.0206
    113  CE        24.8870   21.5180   69.3150 C.3   154  LYS154      0.1093
    114  NZ        23.3990   21.6930   69.0400 N.3   154  LYS154     -0.1314
    115  N         26.5880   21.2540   64.1130 N.am  155  THR155     -0.1937
    116  CA        27.3000   20.2900   63.2750 C.3   155  THR155      0.2028
    117  C         27.5260   20.8330   61.8600 C.2   155  THR155      0.2642
    118  O         28.6410   20.7510   61.3540 O.2   155  THR155     -0.2714
    119  CB        26.5960   18.8960   63.2700 C.3   155  THR155      0.1808
    120  OG1       26.5540   18.3790   64.6020 O.3   155  THR155     -0.2208
    121  CG2       27.3230   17.8800   62.4250 C.3   155  THR155      0.0379
    122  N         26.4920   21.4140   61.2490 N.am  156  GLU156     -0.1963
    123  CA        26.6410   22.0700   59.9500 C.3   156  GLU156      0.1733
    124  C         27.7060   23.1540   59.9620 C.2   156  GLU156      0.2616
    125  O         28.5640   23.1530   59.0950 O.2   156  GLU156     -0.2715
    126  CB        25.3060   22.6310   59.4010 C.3   156  GLU156      0.0429
    127  CG        24.2880   21.5630   58.9210 C.3   156  GLU156      0.1163
    128  CD        24.9100   20.4700   58.0590 C.2   156  GLU156      0.3649
    129  OE1       25.2610   20.7680   56.9080 O.co2 156  GLU156     -0.2457
    130  OE2       25.0310   19.3020   58.5210 O.co2 156  GLU156     -0.2457
    131  N         27.6430   24.0890   60.9100 N.am  157  ASN157     -0.1972
    132  CA        28.6510   25.1580   60.9880 C.3   157  ASN157      0.1688
    133  C         30.0790   24.6810   61.3110 C.2   157  ASN157      0.2292
    134  O         31.0410   25.2950   60.8750 O.2   157  ASN157     -0.2864
    135  CB        28.2150   26.3050   61.9130 C.3   157  ASN157      0.1181
    136  CG        27.1920   27.2240   61.2530 C.2   157  ASN157      0.2629
    137  OD1       27.5520   28.1900   60.5750 O.2   157  ASN157     -0.2716
    138  ND2       25.9130   26.9020   61.4150 N.am  157  ASN157     -0.0877
    139  N         31.2660   23.5640   57.9940 N.3   160  PHE160     -0.1241
    140  CA        31.6480   24.7530   57.2130 C.3   160  PHE160      0.1605
    141  C         33.0200   25.2980   57.6420 C.2   160  PHE160      0.2264
    142  O         33.7850   25.7890   56.8000 O.2   160  PHE160     -0.2867
    143  CB        30.6210   25.9030   57.3000 C.3   160  PHE160      0.0534
    144  CG        29.2050   25.5420   56.8650 C.ar  160  PHE160     -0.0203
    145  CD1       28.1150   26.0710   57.5480 C.ar  160  PHE160     -0.0042
    146  CD2       28.9650   24.7040   55.7850 C.ar  160  PHE160     -0.0042
    147  CE1       26.8050   25.7640   57.1750 C.ar  160  PHE160     -0.0003
    148  CE2       27.6670   24.3940   55.4010 C.ar  160  PHE160     -0.0003
    149  CZ        26.5850   24.9250   56.1060 C.ar  160  PHE160     -0.0000
    150  N         15.8630   16.8530   65.6850 N.3   197  ASN197     -0.1225
    151  CA        16.8270   16.8950   64.5840 C.3   197  ASN197      0.1785
    152  C         16.9110   15.5640   63.8480 C.2   197  ASN197      0.2597
    153  O         17.2410   14.5240   64.4470 O.2   197  ASN197     -0.2718
    154  CB        18.2120   17.3140   65.1150 C.3   197  ASN197      0.1169
    155  CG        19.2410   17.5700   64.0060 C.2   197  ASN197      0.2627
    156  OD1       19.0040   17.3080   62.8240 O.2   197  ASN197     -0.2716
    157  ND2       20.4140   18.0600   64.4050 N.am  197  ASN197     -0.0877
    158  N         16.6240   15.6050   62.5480 N.am  198  ASN198     -0.1960
    159  CA        16.7060   14.4070   61.6970 C.3   198  ASN198      0.1819
    160  C         18.0990   13.7970   61.6350 C.2   198  ASN198      0.2621
    161  O         18.2470   12.6040   61.3630 O.2   198  ASN198     -0.2715
    162  CB        16.1990   14.7040   60.2750 C.3   198  ASN198      0.1195
    163  CG        14.6790   14.7970   60.2060 C.2   198  ASN198      0.2630
    164  OD1       13.9620   14.1690   60.9920 O.2   198  ASN198     -0.2716
    165  ND2       14.1830   15.5890   59.2640 N.am  198  ASN198     -0.0877
    166  N         19.1090   14.6340   61.8810 N.am  199  ASN199     -0.1958
    167  CA        20.5000   14.2100   61.9360 C.3   199  ASN199      0.1819
    168  C         21.1640   14.6170   63.2590 C.2   199  ASN199      0.2622
    169  O         22.2410   15.2380   63.2620 O.2   199  ASN199     -0.2715
    170  CB        21.2700   14.8240   60.7570 C.3   199  ASN199      0.1195
    171  CG        22.6450   14.2310   60.5990 C.2   199  ASN199      0.2630
    172  OD1       22.8390   13.0540   60.8830 O.2   199  ASN199     -0.2716
    173  ND2       23.6170   15.0430   60.1560 N.am  199  ASN199     -0.0877
    174  N         20.5270   14.2930   64.3820 N.am  200  SER200     -0.1936
    175  CA        21.0470   14.7110   65.6940 C.3   200  SER200      0.2055
    176  C         22.3150   13.9840   66.0890 C.2   200  SER200      0.2643
    177  O         22.4020   12.7490   65.9590 O.2   200  SER200     -0.2714
    178  CB        20.0050   14.5210   66.7870 C.3   200  SER200      0.2130
    179  OG        20.3940   15.1750   67.9890 O.3   200  SER200     -0.2179
    180  N         23.2840   14.7530   66.5870 N.am  201  SER201     -0.1949
    181  CA        24.5140   14.2070   67.1530 C.3   201  SER201      0.1924
    182  C         24.1930   13.7190   68.5410 C.2   201  SER201      0.2314
    183  O         23.7870   14.4910   69.4040 O.2   201  SER201     -0.2863
    184  CB        25.6280   15.2610   67.2610 C.3   201  SER201      0.2116
    185  OG        25.6810   16.1810   66.1640 O.3   201  SER201     -0.2180
@<TRIPOS>BOND
     1    62    61    2
     2    69    70    2
     3    69    68    1
     4    77    78    2
     5    77    76    1
     6    65    64   ar
     7    63    64    1
     8    63    60    1
     9    75    76    1
    10    61    60    1
    11    61    67   am
    12    68    67    1
    13    68    71    1
    14    56    54   ar
    15    56    58   ar
    16    64    66   ar
    17    76    79    1
    18    54    53   ar
    19    60    59    1
    20    73    71    1
    21    79    80    1
    22    58    57   ar
    23    59    50   am
    24    71    72    1
    25    53    52    1
    26    53    55   ar
    27    52    49    1
    28    80    81   ar
    29    80    82   ar
    30    72    74    1
    31    81    83   ar
    32    50    49    1
    33    50    51    2
    34    57    55   ar
    35    49    48    1
    36    82    84   ar
    37    83    85   ar
    38    48    38   am
    39    84    85   ar
    40    85    86    1
    41    39    38    2
    42   148   146   ar
    43   148   149   ar
    44    38    37    1
    45   146   144   ar
    46   149   147   ar
    47    33    34    1
    48    33    30    1
    49    34    35    1
    50   142   141    2
    51   144   143    1
    52   144   145   ar
    53    32    31    2
    54   129   128   ar
    55   147   145   ar
    56   140   143    1
    57   140   141    1
    58   140   139    1
    59    37    36    1
    60    37    40    1
    61    31    36   am
    62    31    30    1
    63    17    15   ar
    64    17    19   ar
    65     7     5    1
    66     1     2    1
    67    30    29    1
    68    15    14   ar
    69     6     8    1
    70     6     5    1
    71   128   130   ar
    72   128   127    1
    73    40    41    1
    74    35    29    1
    75    20    19    1
    76     5     2    1
    77    19    18   ar
    78    29    23   am
    79     2     3    1
    80   127   126    1
    81   125   124    2
    82    14    13    1
    83    14    16   ar
    84   165   163   am
    85   126   123    1
    86     9     3   am
    87     9    10    1
    88    41    43   ar
    89    41    42   ar
    90    13    10    1
    91    43    45   ar
    92    12    11    2
    93     3     4    2
    94    27    26    2
    95    18    16   ar
    96   123   124    1
    97   123   122    1
    98   124   131   am
    99    23    24    2
   100    23    22    1
   101   173   171   am
   102   163   162    1
   103   163   164    2
   104   162   159    1
   105    10    11    1
   106   137   136    2
   107   171   170    1
   108   171   172    2
   109    42    44   ar
   110   170   167    1
   111   134   133    2
   112    45    46   ar
   113   131   132    1
   114   132   133    1
   115   132   135    1
   116    26    28   am
   117    26    25    1
   118    22    25    1
   119    22    21    1
   120   122   117   am
   121   136   138   am
   122   136   135    1
   123   118   117    2
   124   161   160    2
   125   160   159    1
   126   160   166   am
   127   159   158    1
   128   117   116    1
   129   166   167    1
   130    44    46   ar
   131   167   168    1
   132    46    47    1
   133   121   119    1
   134   158   152   am
   135   156   155    2
   136   105   104    2
   137   168   169    2
   138   168   174   am
   139   119   116    1
   140   119   120    1
   141   116   115    1
   142   103   104    1
   143   103   102    1
   144   104   106   am
   145   152   153    2
   146   152   151    1
   147   155   157   am
   148   155   154    1
   149   109   108    2
   150   115   108   am
   151   100    99    2
   152    96    95    2
   153   174   175    1
   154   108   107    1
   155   102    99   am
   156   151   154    1
   157   151   150    1
   158    99    98    1
   159   106   107    1
   160    95    94    1
   161    95    97   am
   162   107   110    1
   163    94    93    1
   164   175   176    1
   165   175   178    1
   166   177   176    2
   167    98    97    1
   168    98   101    1
   169   176   180   am
   170   185   184    1
   171   180   181    1
   172   110   111    1
   173   178   179    1
   174    93    89   am
   175   181   184    1
   176   181   182    1
   177   111   112    1
   178    89    90    2
   179    89    88    1
   180   182   183    2
   181   114   113    1
   182    88    91    1
   183    88    87    1
   184   112   113    1
   185    91    92    1
