@<TRIPOS>MOLECULE
tmp/2vbaA00.pdb
 122 113 0 0 0
SMALL
GASTEIGER

@<TRIPOS>ATOM
      1  N         35.6050   62.8110   69.3800 N.3   106  GLY106     -0.1210
      2  CA        36.7930   62.9720   68.5550 C.3   106  GLY106      0.1956
      3  C         38.0630   62.4130   69.1760 C.2   106  GLY106      0.2612
      4  O         38.9630   61.9630   68.4470 O.2   106  GLY106     -0.2717
      5  N         38.1570   62.5190   70.5010 N.am  107  GLY107     -0.1956
      6  CA        39.3770   62.1680   71.2110 C.3   107  GLY107      0.1869
      7  C         39.2520   61.0280   72.1990 C.2   107  GLY107      0.2309
      8  O         40.2580   60.5890   72.7540 O.2   107  GLY107     -0.2863
      9  N         37.0090   63.4430   63.7270 N.3   162  ALA162     -0.1231
     10  CA        37.4550   64.7770   64.1800 C.3   162  ALA162      0.1694
     11  C         36.2390   65.7240   64.2400 C.2   162  ALA162      0.2592
     12  O         35.2250   65.3610   64.8490 O.2   162  ALA162     -0.2718
     13  CB        38.6150   65.3260   63.3350 C.3   162  ALA162      0.0304
     14  N         36.3100   66.9180   63.6430 N.am  163  CYS163     -0.1970
     15  CA        35.2190   67.8780   63.6880 C.3   163  CYS163      0.1712
     16  C         33.9150   67.3880   63.1150 C.2   163  CYS163      0.2296
     17  O         32.8530   67.9860   63.3980 O.2   163  CYS163     -0.2864
     18  CB        35.5920   69.2260   62.9700 C.3   163  CYS163      0.0983
     19  SG        37.3180   69.6310   63.0050 S.3   163  CYS163     -0.0798
     20  N         44.2110   66.9920   76.3530 N.3   197  MET197     -0.1245
     21  CA        43.9530   67.0380   74.9260 C.3   197  MET197      0.1570
     22  C         44.2330   68.4210   74.3290 C.2   197  MET197      0.2261
     23  O         44.8140   68.5400   73.2290 O.2   197  MET197     -0.2867
     24  CB        42.5140   66.6640   74.6560 C.3   197  MET197      0.0387
     25  CG        42.2290   66.6400   73.1250 C.3   197  MET197      0.0595
     26  SD        40.7560   65.7880   72.6840 S.3   197  MET197     -0.1393
     27  CE        39.7810   66.9550   73.4420 C.3   197  MET197      0.0692
     28  N         46.5920   70.3830   70.6190 N.3   201  PHE201     -0.1241
     29  CA        46.1820   71.3690   69.6310 C.3   201  PHE201      0.1605
     30  C         47.0330   72.6300   69.7210 C.2   201  PHE201      0.2264
     31  O         47.4140   73.2010   68.7010 O.2   201  PHE201     -0.2867
     32  CB        44.7070   71.7220   69.7930 C.3   201  PHE201      0.0534
     33  CG        43.7770   70.5980   69.3810 C.ar  201  PHE201     -0.0203
     34  CD1       43.4580   70.3990   68.0370 C.ar  201  PHE201     -0.0042
     35  CD2       43.2560   69.7150   70.3150 C.ar  201  PHE201     -0.0042
     36  CE1       42.6080   69.3710   67.6560 C.ar  201  PHE201     -0.0003
     37  CE2       42.4230   68.6760   69.9240 C.ar  201  PHE201     -0.0003
     38  CZ        42.1030   68.5240   68.6100 C.ar  201  PHE201     -0.0000
     39  N         50.3780   72.2760   68.0450 N.3   204  MET204     -0.1245
     40  CA        50.4280   72.4120   66.5950 C.3   204  MET204      0.1570
     41  C         50.0140   73.8150   66.1240 C.2   204  MET204      0.2261
     42  O         49.9330   74.0570   64.9160 O.2   204  MET204     -0.2867
     43  CB        49.6200   71.3050   65.8960 C.3   204  MET204      0.0387
     44  CG        48.1550   71.3700   66.1480 C.3   204  MET204      0.0595
     45  SD        47.2180   70.1050   65.2310 S.3   204  MET204     -0.1393
     46  CE        47.5290   70.6780   63.5630 C.3   204  MET204      0.0692
     47  N         47.1240   75.4270   66.6670 N.3   206  ALA206     -0.1245
     48  CA        45.7440   75.4990   66.1730 C.3   206  ALA206      0.1562
     49  C         44.8500   76.3930   67.0000 C.2   206  ALA206      0.2260
     50  O         43.7630   76.7450   66.5330 O.2   206  ALA206     -0.2867
     51  CB        45.1210   74.0850   66.0970 C.3   206  ALA206      0.0290
     52  N         41.2790   78.3610   66.7110 N.3   229  PHE229     -0.1241
     53  CA        40.0150   78.0790   67.3400 C.3   229  PHE229      0.1605
     54  C         40.1200   78.0990   68.8610 C.2   229  PHE229      0.2264
     55  O         41.2180   78.0940   69.4340 O.2   229  PHE229     -0.2867
     56  CB        39.3640   76.7740   66.8020 C.3   229  PHE229      0.0534
     57  CG        40.0000   75.4700   67.2380 C.ar  229  PHE229     -0.0203
     58  CD1       39.5830   74.8420   68.4080 C.ar  229  PHE229     -0.0042
     59  CD2       40.8550   74.7850   66.4000 C.ar  229  PHE229     -0.0042
     60  CE1       40.0450   73.5660   68.7440 C.ar  229  PHE229     -0.0003
     61  CE2       41.3340   73.5130   66.7410 C.ar  229  PHE229     -0.0003
     62  CZ        40.9310   72.9240   67.9140 C.ar  229  PHE229     -0.0000
     63  N         46.7670   68.5710   56.4970 N.3   270  VAL270     -0.1245
     64  CA        46.4500   69.5110   57.5800 C.3   270  VAL270      0.1561
     65  C         45.5390   70.6930   57.2260 C.2   270  VAL270      0.2260
     66  O         45.0710   71.3960   58.1220 O.2   270  VAL270     -0.2867
     67  CB        47.7370   70.0350   58.3000 C.3   270  VAL270      0.0252
     68  CG1       48.5060   68.8730   58.9360 C.3   270  VAL270      0.0019
     69  CG2       48.6180   70.8300   57.3370 C.3   270  VAL270      0.0019
     70  N         31.0950   75.6500   59.0980 N.3   298  HIS298     -0.1241
     71  CA        32.0860   74.9790   59.9220 C.3   298  HIS298      0.1621
     72  C         32.9110   76.0190   60.6960 C.2   298  HIS298      0.2264
     73  O         33.1400   75.8630   61.8900 O.2   298  HIS298     -0.2867
     74  CB        32.9200   74.1060   58.9870 C.3   298  HIS298      0.0745
     75  CG        34.1550   73.5640   59.6090 C.ar  298  HIS298      0.0817
     76  ND1       34.1440   72.6000   60.5850 N.ar  298  HIS298     -0.2268
     77  CD2       35.4550   73.8760   59.3910 C.ar  298  HIS298      0.1154
     78  CE1       35.3900   72.3410   60.9550 C.ar  298  HIS298      0.1986
     79  NE2       36.2040   73.1130   60.2500 N.ar  298  HIS298     -0.2212
     80  N         35.8450   77.6970   62.0420 N.3   300  THR300     -0.1218
     81  CA        36.4220   77.5290   63.3740 C.3   300  THR300      0.1862
     82  C         37.2280   78.7050   63.9210 C.2   300  THR300      0.2287
     83  O         37.6150   78.6510   65.0850 O.2   300  THR300     -0.2866
     84  CB        37.3210   76.3010   63.4410 C.3   300  THR300      0.1770
     85  OG1       38.4350   76.5210   62.5750 O.3   300  THR300     -0.2211
     86  CG2       36.5840   75.0370   62.9990 C.3   300  THR300      0.0375
     87  N         40.0350   79.8930   62.2040 N.3   302  THR302     -0.1218
     88  CA        41.4280   79.6660   61.7820 C.3   302  THR302      0.1862
     89  C         41.6870   80.4740   60.5050 C.2   302  THR302      0.2287
     90  O         40.8020   80.5880   59.6350 O.2   302  THR302     -0.2866
     91  CB        41.6520   78.1610   61.5440 C.3   302  THR302      0.1770
     92  OG1       41.4640   77.4460   62.7750 O.3   302  THR302     -0.2211
     93  CG2       43.0130   77.8600   61.0060 C.3   302  THR302      0.0375
     94  N         34.8970   75.4870   69.6700 N.3   333  HIS333     -0.1241
     95  CA        34.8910   74.2830   68.8510 C.3   333  HIS333      0.1621
     96  C         34.8790   73.0530   69.7520 C.2   333  HIS333      0.2264
     97  O         35.8860   72.7520   70.3880 O.2   333  HIS333     -0.2867
     98  CB        36.1510   74.2840   68.0190 C.3   333  HIS333      0.0745
     99  CG        36.1710   73.2170   66.9860 C.ar  333  HIS333      0.0817
    100  ND1       35.2180   72.2230   66.9340 N.ar  333  HIS333     -0.2268
    101  CD2       37.0320   72.9820   65.9720 C.ar  333  HIS333      0.1154
    102  CE1       35.4830   71.4240   65.9030 C.ar  333  HIS333      0.1986
    103  NE2       36.5800   71.8680   65.3030 N.ar  333  HIS333     -0.2212
    104  N         34.6380   69.9610   68.9450 N.3   335  LEU335     -0.1245
    105  CA        35.3020   68.7960   68.3740 C.3   335  LEU335      0.1561
    106  C         34.2730   67.7060   68.0790 C.2   335  LEU335      0.2260
    107  O         33.3930   67.9290   67.2360 O.2   335  LEU335     -0.2867
    108  CB        36.4620   68.3290   69.2820 C.3   335  LEU335      0.0270
    109  CG        37.4640   69.4300   69.6880 C.3   335  LEU335      0.0019
    110  CD1       38.5410   68.8330   70.5450 C.3   335  LEU335      0.0001
    111  CD2       38.0910   70.1010   68.4850 C.3   335  LEU335      0.0001
    112  N         39.3080   67.7820   60.5050 N.3   392  PHE392     -0.1241
    113  CA        40.6970   67.5510   60.4080 C.3   392  PHE392      0.1605
    114  C         41.0090   66.1340   59.8320 C.2   392  PHE392      0.2264
    115  O         40.2930   65.1430   60.1430 O.2   392  PHE392     -0.2867
    116  CB        41.2410   67.7950   61.8100 C.3   392  PHE392      0.0534
    117  CG        42.6990   67.8080   61.8750 C.ar  392  PHE392     -0.0203
    118  CD1       43.4610   68.6860   61.0880 C.ar  392  PHE392     -0.0042
    119  CD2       43.3310   66.9170   62.7020 C.ar  392  PHE392     -0.0042
    120  CE1       44.8520   68.6380   61.1490 C.ar  392  PHE392     -0.0003
    121  CE2       44.6890   66.8730   62.7640 C.ar  392  PHE392     -0.0003
    122  CZ        45.4530   67.7290   61.9980 C.ar  392  PHE392     -0.0000
@<TRIPOS>BOND
     1    63    64    1
     2    65    64    1
     3    65    66    2
     4    69    67    1
     5    64    67    1
     6    67    68    1
     7    74    75    1
     8    74    71    1
     9    70    71    1
    10    77    75   ar
    11    77    79   ar
    12    75    76   ar
    13    90    89    2
    14   114   115    2
    15   114   113    1
    16    71    72    1
    17    79    78   ar
    18   113   112    1
    19   113   116    1
    20    89    88    1
    21    76    78   ar
    22    72    73    2
    23    93    91    1
    24   118   120   ar
    25   118   117   ar
    26   120   122   ar
    27    91    88    1
    28    91    92    1
    29    88    87    1
    30   116   117    1
    31   117   119   ar
    32   122   121   ar
    33    80    81    1
    34    85    84    1
    35   119   121   ar
    36    18    19    1
    37    18    15    1
    38    86    84    1
    39    16    17    2
    40    16    15    1
    41    13    10    1
    42    81    84    1
    43    81    82    1
    44    46    45    1
    45    14    15    1
    46    14    11   am
    47     9    10    1
    48    82    83    2
    49    10    11    1
    50    11    12    2
    51    42    41    2
    52    45    44    1
    53   103   102   ar
    54   103   101   ar
    55    43    44    1
    56    43    40    1
    57   102   100   ar
    58   101    99   ar
    59    51    48    1
    60    41    40    1
    61    48    47    1
    62    48    49    1
    63    59    61   ar
    64    59    57   ar
    65    50    49    2
    66    40    39    1
    67    52    53    1
    68    61    62   ar
    69    56    57    1
    70    56    53    1
    71   100    99   ar
    72    99    98    1
    73   107   106    2
    74    57    58   ar
    75    53    54    1
    76    36    34   ar
    77    36    38   ar
    78    62    60   ar
    79    98    95    1
    80    34    33   ar
    81   106   105    1
    82   105   104    1
    83   105   108    1
    84    58    60   ar
    85     4     3    2
    86   111   109    1
    87     2     3    1
    88     2     1    1
    89    38    37   ar
    90    31    30    2
    91    95    94    1
    92    95    96    1
    93    54    55    2
    94     3     5   am
    95   108   109    1
    96    33    32    1
    97    33    35   ar
    98    29    30    1
    99    29    32    1
   100    29    28    1
   101   109   110    1
   102    96    97    2
   103    37    35   ar
   104     5     6    1
   105     6     7    1
   106     7     8    2
   107    26    25    1
   108    26    27    1
   109    25    24    1
   110    23    22    2
   111    22    21    1
   112    24    21    1
   113    21    20    1
