@<TRIPOS>MOLECULE
tmp/2vbbA00.pdb
 202 186 0 0 0
SMALL
GASTEIGER

@<TRIPOS>ATOM
      1  N         21.0320   35.8820   10.8120 N.3    85  ARG85      -0.1245
      2  CA        20.0770   35.4170    9.8120 C.3    85  ARG85       0.1563
      3  C         19.4130   34.1240   10.2150 C.2    85  ARG85       0.2260
      4  O         18.1620   33.9780   10.1340 O.2    85  ARG85      -0.2867
      5  CB        20.6900   35.2580    8.4540 C.3    85  ARG85       0.0307
      6  CG        21.2520   36.5400    7.8200 C.3    85  ARG85       0.0489
      7  CD        21.8870   36.2770    6.4670 C.3    85  ARG85       0.2205
      8  NE        20.8610   35.9440    5.4850 N.pl3  85  ARG85      -0.0865
      9  CZ        21.0800   35.4730    4.2880 C.cat  85  ARG85       0.5346
     10  NH1       22.3080   35.1170    3.8770 N.pl3  85  ARG85       0.1354
     11  NH2       20.0530   35.2580    3.4970 N.pl3  85  ARG85       0.1354
     12  N         13.0640   32.8970   15.2110 N.3    89  TYR89      -0.1241
     13  CA        12.6130   34.2660   15.3930 C.3    89  TYR89       0.1605
     14  C         11.3240   34.1030   16.2660 C.2    89  TYR89       0.2264
     15  O         10.3110   33.6370   15.7770 O.2    89  TYR89      -0.2867
     16  CB        12.2330   34.9090   14.0650 C.3    89  TYR89       0.0534
     17  CG        13.4110   35.1630   13.0890 C.ar   89  TYR89      -0.0201
     18  CD1       14.3240   34.1980   12.7760 C.ar   89  TYR89      -0.0009
     19  CD2       13.5530   36.3710   12.4990 C.ar   89  TYR89      -0.0009
     20  CE1       15.3270   34.4260   11.8540 C.ar   89  TYR89       0.0417
     21  CE2       14.5040   36.5970   11.5590 C.ar   89  TYR89       0.0417
     22  CZ        15.4480   35.6210   11.2950 C.ar   89  TYR89       0.1957
     23  OH        16.4650   35.9530   10.3800 O.3    89  TYR89      -0.2866
     24  N         14.5110   30.3990   10.0790 N.3   102  CYS102     -0.1235
     25  CA        15.2730   30.7270    8.8270 C.3   102  CYS102      0.1677
     26  C         16.4610   29.8040    8.7350 C.2   102  CYS102      0.2270
     27  O         17.2020   29.6440    9.7190 O.2   102  CYS102     -0.2867
     28  CB        15.6840   32.1630    8.8140 C.3   102  CYS102      0.0956
     29  SG        16.7450   32.6720    7.4580 S.3   102  CYS102     -0.0801
     30  N         17.9000   32.0950    1.1280 N.3   181  SER181     -0.1217
     31  CA        17.3440   31.6130    2.4110 C.3   181  SER181      0.1889
     32  C         15.9320   31.1090    2.2320 C.2   181  SER181      0.2288
     33  O         15.1810   31.5370    1.3850 O.2   181  SER181     -0.2866
     34  CB        17.3670   32.7380    3.4420 C.3   181  SER181      0.2089
     35  OG        16.5060   33.7920    3.0090 O.3   181  SER181     -0.2183
     36  N         12.5840   30.7370    4.7400 N.3   183  VAL183     -0.1245
     37  CA        11.9830   31.1220    5.9810 C.3   183  VAL183      0.1561
     38  C         10.7000   30.3740    6.1450 C.2   183  VAL183      0.2260
     39  O          9.8270   30.4170    5.2910 O.2   183  VAL183     -0.2867
     40  CB        11.8100   32.6160    6.1330 C.3   183  VAL183      0.0252
     41  CG1       11.3990   32.9280    7.6060 C.3   183  VAL183      0.0019
     42  CG2       13.0470   33.3900    5.6930 C.3   183  VAL183      0.0019
     43  N          7.6400   30.5930    8.0900 N.3   185  ILE185     -0.1245
     44  CA         6.8640   31.5630    8.9250 C.3   185  ILE185      0.1561
     45  C          5.5320   30.9750    9.3400 C.2   185  ILE185      0.2260
     46  O          4.7840   30.4600    8.5350 O.2   185  ILE185     -0.2867
     47  CB         6.6540   32.8930    8.1560 C.3   185  ILE185      0.0252
     48  CG1        7.8860   33.4080    7.5460 C.3   185  ILE185      0.0019
     49  CG2        5.9690   33.9320    9.1140 C.3   185  ILE185      0.0019
     50  CD1        7.6590   34.5980    6.6060 C.3   185  ILE185      0.0001
     51  N          2.0750   32.1020   11.0360 N.3   187  TYR187     -0.1241
     52  CA         1.1220   33.1460   11.4640 C.3   187  TYR187      0.1605
     53  C          0.0380   32.4170   12.2160 C.2   187  TYR187      0.2264
     54  O         -0.6470   31.6180   11.6320 O.2   187  TYR187     -0.2867
     55  CB         0.5350   33.8860   10.2310 C.3   187  TYR187      0.0534
     56  CG         1.4620   34.9270    9.5940 C.ar  187  TYR187     -0.0201
     57  CD1        1.5860   36.1980   10.1980 C.ar  187  TYR187     -0.0009
     58  CD2        2.2670   34.6290    8.4930 C.ar  187  TYR187     -0.0009
     59  CE1        2.4380   37.1850    9.6770 C.ar  187  TYR187      0.0417
     60  CE2        3.0120   35.6970    7.9680 C.ar  187  TYR187      0.0417
     61  CZ         3.0420   36.9250    8.5870 C.ar  187  TYR187      0.1957
     62  OH         3.8460   38.0180    8.1700 O.3   187  TYR187     -0.2866
     63  N          2.1360   42.7950    8.3680 N.3   209  PHE209     -0.1241
     64  CA         3.4770   43.2480    7.9560 C.3   209  PHE209      0.1605
     65  C          3.2190   44.3460    6.9600 C.2   209  PHE209      0.2264
     66  O          2.3800   44.2200    6.0830 O.2   209  PHE209     -0.2867
     67  CB         4.3120   42.0970    7.3720 C.3   209  PHE209      0.0534
     68  CG         5.8080   42.3950    7.1950 C.ar  209  PHE209     -0.0203
     69  CD1        6.6390   42.5440    8.2900 C.ar  209  PHE209     -0.0042
     70  CD2        6.3050   42.5380    5.9700 C.ar  209  PHE209     -0.0042
     71  CE1        8.0600   42.8450    8.1370 C.ar  209  PHE209     -0.0003
     72  CE2        7.6570   42.7830    5.8120 C.ar  209  PHE209     -0.0003
     73  CZ         8.5050   42.9120    6.8700 C.ar  209  PHE209     -0.0000
     74  N          6.4580   46.9810    1.6770 N.3   212  HIS212     -0.1241
     75  CA         7.8640   46.7700    1.4550 C.3   212  HIS212      0.1621
     76  C          8.0450   46.3070    0.0570 C.2   212  HIS212      0.2264
     77  O          7.1680   45.8230   -0.6100 O.2   212  HIS212     -0.2867
     78  CB         8.4610   45.7670    2.4320 C.3   212  HIS212      0.0745
     79  CG         7.9570   44.4220    2.2550 C.ar  212  HIS212      0.0817
     80  ND1        6.6730   44.0840    2.6740 N.ar  212  HIS212     -0.2268
     81  CD2        8.4870   43.2900    1.6940 C.ar  212  HIS212      0.1154
     82  CE1        6.4600   42.8030    2.3850 C.ar  212  HIS212      0.1986
     83  NE2        7.5170   42.3040    1.7690 N.ar  212  HIS212     -0.2212
     84  N         10.7510   43.4900   -1.6030 N.3   214  ASP214     -0.1225
     85  CA        11.5720   42.3900   -1.1540 C.3   214  ASP214      0.1805
     86  C         13.0730   42.6240   -1.4020 C.2   214  ASP214      0.2597
     87  O         13.5070   43.2500   -2.3900 O.2   214  ASP214     -0.2718
     88  CB        11.2380   41.0750   -1.8310 C.3   214  ASP214      0.1424
     89  CG         9.9420   40.4690   -1.4140 C.2   214  ASP214      0.3668
     90  OD1        9.3580   40.9760   -0.4290 O.co2 214  ASP214     -0.2456
     91  OD2        9.5290   39.5080   -2.0210 O.co2 214  ASP214     -0.2456
     92  N         13.8800   42.1180   -0.4480 N.am  215  VAL215     -0.1980
     93  CA        15.3600   42.0860   -0.5590 C.3   215  VAL215      0.1595
     94  C         15.6570   40.7020   -1.1400 C.2   215  VAL215      0.2287
     95  O         15.6870   39.6770   -0.4680 O.2   215  VAL215     -0.2864
     96  CB        16.0150   42.2760    0.8250 C.3   215  VAL215      0.0276
     97  CG1       17.5460   42.2980    0.6420 C.3   215  VAL215      0.0022
     98  CG2       15.5240   43.6320    1.3680 C.3   215  VAL215      0.0022
     99  N         11.6630   36.3260   -5.4100 N.3   219  THR219     -0.1218
    100  CA        11.1250   35.6200   -4.2560 C.3   219  THR219      0.1862
    101  C         10.1640   34.5540   -4.7490 C.2   219  THR219      0.2287
    102  O          9.3620   34.8050   -5.6710 O.2   219  THR219     -0.2866
    103  CB        10.4100   36.6010   -3.3870 C.3   219  THR219      0.1770
    104  OG1       11.3240   37.6290   -2.9860 O.3   219  THR219     -0.2211
    105  CG2        9.8130   35.9120   -2.1670 C.3   219  THR219      0.0375
    106  N          7.5430   31.8890   -3.3500 N.3   221  LEU221     -0.1245
    107  CA         6.8200   31.8010   -2.0920 C.3   221  LEU221      0.1561
    108  C          5.7130   30.7910   -2.1610 C.2   221  LEU221      0.2260
    109  O          4.8690   30.8350   -3.0360 O.2   221  LEU221     -0.2867
    110  CB         6.1620   33.1620   -1.7960 C.3   221  LEU221      0.0270
    111  CG         5.2090   33.2720   -0.6080 C.3   221  LEU221      0.0019
    112  CD1        5.9270   33.1220    0.7020 C.3   221  LEU221      0.0001
    113  CD2        4.6260   34.6990   -0.6090 C.3   221  LEU221      0.0001
    114  N          2.4150   29.7400    0.1530 N.3   223  GLN223     -0.1245
    115  CA         1.5600   30.0880    1.2720 C.3   223  GLN223      0.1566
    116  C          0.3650   29.2120    1.3560 C.2   223  GLN223      0.2260
    117  O         -0.0940   28.6950    0.3100 O.2   223  GLN223     -0.2867
    118  CB         1.0370   31.5500    1.1370 C.3   223  GLN223      0.0367
    119  CG         2.0910   32.5990    1.1120 C.3   223  GLN223      0.0905
    120  CD         1.5310   33.8940    1.5640 C.2   223  GLN223      0.2608
    121  OE1        0.4100   34.2620    1.0870 O.2   223  GLN223     -0.2717
    122  NE2        2.2770   34.6340    2.4060 N.am  223  GLN223     -0.0878
    123  N         -2.2050   38.6300    1.0120 N.3   229  LEU229     -0.1245
    124  CA        -1.2920   39.5940    0.3860 C.3   229  LEU229      0.1561
    125  C         -2.0120   40.6260   -0.4730 C.2   229  LEU229      0.2260
    126  O         -3.0190   40.3630   -1.0710 O.2   229  LEU229     -0.2867
    127  CB        -0.3170   38.8400   -0.5060 C.3   229  LEU229      0.0270
    128  CG         0.5960   37.9270    0.2600 C.3   229  LEU229      0.0019
    129  CD1        1.6010   37.2230   -0.7140 C.3   229  LEU229      0.0001
    130  CD2        1.4190   38.5660    1.2420 C.3   229  LEU229      0.0001
    131  N          4.2950   45.5410   -1.6720 N.3   268  HIS268     -0.1241
    132  CA         3.2650   44.6930   -1.1790 C.3   268  HIS268      0.1621
    133  C          3.2550   44.6530    0.3210 C.2   268  HIS268      0.2264
    134  O          4.2200   45.0740    0.9690 O.2   268  HIS268     -0.2867
    135  CB         3.4190   43.2660   -1.7590 C.3   268  HIS268      0.0745
    136  CG         4.7270   42.6580   -1.5060 C.ar  268  HIS268      0.0817
    137  ND1        5.8790   42.9740   -2.1620 N.ar  268  HIS268     -0.2268
    138  CD2        5.0430   41.6490   -0.6720 C.ar  268  HIS268      0.1154
    139  CE1        6.8470   42.1860   -1.7140 C.ar  268  HIS268      0.1986
    140  NE2        6.3900   41.4210   -0.7510 N.ar  268  HIS268     -0.2212
    141  N          1.0850   42.5610    3.9540 N.3   270  VAL270     -0.1245
    142  CA         0.4250   41.3410    4.4750 C.3   270  VAL270      0.1561
    143  C         -0.7260   41.7950    5.3570 C.2   270  VAL270      0.2260
    144  O         -0.4890   42.4040    6.4240 O.2   270  VAL270     -0.2867
    145  CB         1.3940   40.4850    5.2900 C.3   270  VAL270      0.0252
    146  CG1        0.6650   39.2960    5.8490 C.3   270  VAL270      0.0019
    147  CG2        2.5910   40.0150    4.4190 C.3   270  VAL270      0.0019
    148  N          3.5750   30.9100    5.7090 N.3   279  SER279     -0.1217
    149  CA         4.2000   31.6500    4.6780 C.3   279  SER279      0.1889
    150  C          5.6410   31.2370    4.5480 C.2   279  SER279      0.2288
    151  O          6.4120   31.3760    5.5110 O.2   279  SER279     -0.2866
    152  CB         4.1660   33.1400    4.9630 C.3   279  SER279      0.2089
    153  OG         4.6810   33.9440    3.8700 O.3   279  SER279     -0.2183
    154  N          8.6390   31.6170    2.2330 N.3   281  PRO281     -0.2116
    155  CA         9.4300   32.2180    1.1630 C.3   281  PRO281      0.1372
    156  C         10.8070   31.5800    1.0060 C.2   281  PRO281      0.2244
    157  O         11.4630   31.2140    1.9610 O.2   281  PRO281     -0.2868
    158  CB         9.6000   33.6780    1.5640 C.3   281  PRO281      0.0268
    159  CG         9.5700   33.5870    3.0670 C.3   281  PRO281      0.0207
    160  CD         8.5270   32.5670    3.3870 C.3   281  PRO281      0.0892
    161  N         14.0450   33.2600   -0.7070 N.3   283  PHE283     -0.1241
    162  CA        14.6100   34.4770   -1.2590 C.3   283  PHE283      0.1605
    163  C         15.7620   34.0880   -2.1030 C.2   283  PHE283      0.2264
    164  O         16.7880   33.5960   -1.6060 O.2   283  PHE283     -0.2867
    165  CB        14.9980   35.4210   -0.1000 C.3   283  PHE283      0.0534
    166  CG        13.8340   35.8960    0.6940 C.ar  283  PHE283     -0.0203
    167  CD1       12.9010   36.7370    0.1210 C.ar  283  PHE283     -0.0042
    168  CD2       13.5940   35.4710    2.0190 C.ar  283  PHE283     -0.0042
    169  CE1       11.8000   37.1940    0.8920 C.ar  283  PHE283     -0.0003
    170  CE2       12.4800   35.8680    2.7320 C.ar  283  PHE283     -0.0003
    171  CZ        11.6040   36.7570    2.1600 C.ar  283  PHE283     -0.0000
    172  N         18.8100   34.7550   -3.6590 N.3   285  ASN285     -0.1240
    173  CA        19.9590   35.6900   -3.5180 C.3   285  ASN285      0.1653
    174  C         21.1130   35.0390   -4.2880 C.2   285  ASN285      0.2266
    175  O         21.2360   33.7970   -4.3840 O.2   285  ASN285     -0.2867
    176  CB        20.3040   35.7700   -2.0550 C.3   285  ASN285      0.1155
    177  CG        19.2430   36.4560   -1.2200 C.2   285  ASN285      0.2627
    178  OD1       18.6270   37.3920   -1.7430 O.2   285  ASN285     -0.2716
    179  ND2       19.0510   36.0400    0.0200 N.am  285  ASN285     -0.0877
    180  N         18.8430   43.8920    4.2850 N.3   319  LEU319     -0.1245
    181  CA        18.2340   43.1440    5.4000 C.3   319  LEU319      0.1561
    182  C         18.1970   44.0810    6.5920 C.2   319  LEU319      0.2260
    183  O         17.1370   44.0910    7.2870 O.2   319  LEU319     -0.2867
    184  CB        18.9790   41.9060    5.6960 C.3   319  LEU319      0.0270
    185  CG        18.7800   40.8220    4.5920 C.3   319  LEU319      0.0019
    186  CD1       19.6210   39.6300    4.9310 C.3   319  LEU319      0.0001
    187  CD2       17.2970   40.4760    4.2380 C.3   319  LEU319      0.0001
    188  N         15.3490   46.7710    5.9970 N.3   322  LEU322     -0.1245
    189  CA        13.9980   46.3020    6.1230 C.3   322  LEU322      0.1561
    190  C         13.6420   46.0790    7.5900 C.2   322  LEU322      0.2260
    191  O         12.4720   46.3010    8.0050 O.2   322  LEU322     -0.2867
    192  CB        13.8940   44.9970    5.3180 C.3   322  LEU322      0.0270
    193  CG        12.4910   44.3370    5.2800 C.3   322  LEU322      0.0019
    194  CD1       11.4230   45.2920    4.7220 C.3   322  LEU322      0.0001
    195  CD2       12.7380   42.9380    4.5490 C.3   322  LEU322      0.0001
    196  N         11.4230   40.8310   12.7740 N.3   329  THR329     -0.1218
    197  CA        10.4570   39.7540   12.6520 C.3   329  THR329      0.1862
    198  C         10.8040   38.6020   13.5560 C.2   329  THR329      0.2287
    199  O          9.9930   37.7110   13.6160 O.2   329  THR329     -0.2866
    200  CB        10.3580   39.2040   11.2560 C.3   329  THR329      0.1770
    201  OG1       11.5600   38.6560   10.7820 O.3   329  THR329     -0.2211
    202  CG2        9.9060   40.4150   10.2940 C.3   329  THR329      0.0375
@<TRIPOS>BOND
     1   102   101    2
     2    99   100    1
     3   101   100    1
     4   175   174    2
     5   174   173    1
     6   100   103    1
     7   172   173    1
     8   173   176    1
     9   103   104    1
    10   103   105    1
    11   106   107    1
    12   109   108    2
    13    87    86    2
    14   137   139   ar
    15   137   136   ar
    16   108   107    1
    17   163   164    2
    18   163   162    1
    19   107   110    1
    20   176   177    1
    21    91    89   ar
    22    88    89    1
    23    88    85    1
    24   110   111    1
    25   135   136    1
    26   135   132    1
    27   178   177    2
    28   139   140   ar
    29   131   132    1
    30    84    85    1
    31   136   138   ar
    32    89    90   ar
    33    86    85    1
    34    86    92   am
    35   162   161    1
    36   162   165    1
    37   177   179   am
    38   132   133    1
    39    94    93    1
    40    94    95    2
    41   126   125    2
    42   140   138   ar
    43   129   128    1
    44    77    76    2
    45   113   111    1
    46   111   112    1
    47    93    92    1
    48    93    96    1
    49   127   128    1
    50   127   124    1
    51   125   124    1
    52   165   166    1
    53    76    75    1
    54   167   166   ar
    55   167   169   ar
    56   114   115    1
    57   128   130    1
    58   117   116    2
    59   133   134    2
    60   124   123    1
    61    97    96    1
    62   166   168   ar
    63    96    98    1
    64   169   171   ar
    65   156   155    1
    66   156   157    2
    67   121   120    2
    68   119   118    1
    69   119   120    1
    70    30    31    1
    71   118   115    1
    72   155   158    1
    73   155   154    1
    74   115   116    1
    75    33    32    2
    76    75    74    1
    77    75    78    1
    78   120   122   am
    79   158   159    1
    80    81    83   ar
    81    81    79   ar
    82    83    82   ar
    83   168   170   ar
    84   171   170   ar
    85    32    31    1
    86   154   160    1
    87    79    78    1
    88    79    80   ar
    89    82    80   ar
    90    31    34    1
    91    35    34    1
    92   159   160    1
    93    11     9    1
    94   153   152    1
    95    10     9    1
    96   141   142    1
    97   187   185    1
    98   180   181    1
    99     9     8    2
   100   147   145    1
   101   142   145    1
   102   142   143    1
   103   150   149    1
   104   150   151    2
   105   195   193    1
   106   185   186    1
   107   185   184    1
   108   149   152    1
   109   149   148    1
   110   194   193    1
   111    36    37    1
   112   193   192    1
   113   145   146    1
   114    39    38    2
   115   192   189    1
   116   143   144    2
   117   181   184    1
   118   181   182    1
   119     8     7    1
   120    42    40    1
   121    72    70   ar
   122    72    73   ar
   123    70    68   ar
   124    37    40    1
   125    37    38    1
   126   188   189    1
   127    66    65    2
   128   189   190    1
   129    40    41    1
   130     7     6    1
   131   182   183    2
   132    50    48    1
   133    73    71   ar
   134    65    64    1
   135    68    67    1
   136    68    69   ar
   137    67    64    1
   138    29    28    1
   139    48    47    1
   140   190   191    2
   141     6     5    1
   142    64    63    1
   143    60    58   ar
   144    60    61   ar
   145    43    44    1
   146    71    69   ar
   147    47    44    1
   148    47    49    1
   149    62    61    1
   150     5     2    1
   151    58    56   ar
   152    46    45    2
   153    61    59   ar
   154    26    25    1
   155    26    27    2
   156    28    25    1
   157    25    24    1
   158    44    45    1
   159    56    57   ar
   160    56    55    1
   161    59    57   ar
   162     2     3    1
   163     2     1    1
   164     4     3    2
   165    55    52    1
   166   202   200    1
   167    23    22    1
   168   201   200    1
   169    51    52    1
   170   200   197    1
   171    22    21   ar
   172    22    20   ar
   173    52    53    1
   174    21    19   ar
   175    54    53    2
   176    20    18   ar
   177    19    17   ar
   178   197   196    1
   179   197   198    1
   180    18    17   ar
   181    17    16    1
   182   198   199    2
   183    16    13    1
   184    12    13    1
   185    13    14    1
   186    15    14    2
