@<TRIPOS>MOLECULE
tmp/2vbdA00.pdb
 213 196 0 0 0
SMALL
GASTEIGER

@<TRIPOS>ATOM
      1  N         21.1450   35.9120   10.8360 N.3    85  ARG85      -0.1245
      2  CA        20.0790   35.5390    9.8410 C.3    85  ARG85       0.1563
      3  C         19.3310   34.2410   10.2010 C.2    85  ARG85       0.2260
      4  O         18.1020   34.2010   10.1790 O.2    85  ARG85      -0.2867
      5  CB        20.6900   35.3620    8.4450 C.3    85  ARG85       0.0307
      6  CG        21.1990   36.6540    7.8050 C.3    85  ARG85       0.0489
      7  CD        21.8700   36.3870    6.4680 C.3    85  ARG85       0.2205
      8  NE        20.8320   36.1030    5.4760 N.pl3  85  ARG85      -0.0865
      9  CZ        21.0420   35.5370    4.2900 C.cat  85  ARG85       0.5346
     10  NH1       22.2410   35.2040    3.8690 N.pl3  85  ARG85       0.1354
     11  NH2       20.0260   35.3260    3.4930 N.pl3  85  ARG85       0.1354
     12  N         13.0830   33.0180   15.2130 N.3    89  TYR89      -0.1241
     13  CA        12.6010   34.3610   15.4160 C.3    89  TYR89       0.1605
     14  C         11.3480   34.2170   16.2890 C.2    89  TYR89       0.2264
     15  O         10.3060   33.8030   15.7670 O.2    89  TYR89      -0.2867
     16  CB        12.2220   34.9970   14.0760 C.3    89  TYR89       0.0534
     17  CG        13.3840   35.2740   13.0760 C.ar   89  TYR89      -0.0201
     18  CD1       14.3550   34.3250   12.8050 C.ar   89  TYR89      -0.0009
     19  CD2       13.4670   36.4880   12.4200 C.ar   89  TYR89      -0.0009
     20  CE1       15.3320   34.5560   11.8760 C.ar   89  TYR89       0.0417
     21  CE2       14.5020   36.7640   11.5560 C.ar   89  TYR89       0.0417
     22  CZ        15.4060   35.8250   11.2720 C.ar   89  TYR89       0.1957
     23  OH        16.4470   36.1210   10.4040 O.3    89  TYR89      -0.2866
     24  N          3.6380   36.8500   14.9790 N.3    98  VAL98      -0.1245
     25  CA         4.3520   35.9950   14.0320 C.3    98  VAL98       0.1561
     26  C          5.6550   35.4610   14.6330 C.2    98  VAL98       0.2260
     27  O          6.3130   36.0900   15.4530 O.2    98  VAL98      -0.2867
     28  CB         4.6040   36.7070   12.6410 C.3    98  VAL98       0.0252
     29  CG1        5.6510   37.7910   12.7740 C.3    98  VAL98       0.0019
     30  CG2        5.1540   35.7270   11.5960 C.3    98  VAL98       0.0019
     31  N          8.9460   32.4620   13.3320 N.3   100  SER100     -0.1217
     32  CA         9.5760   31.7990   12.1820 C.3   100  SER100      0.1889
     33  C         10.9270   31.1820   12.4660 C.2   100  SER100      0.2288
     34  O         11.5910   31.5380   13.4580 O.2   100  SER100     -0.2866
     35  CB         9.7610   32.7950   11.0500 C.3   100  SER100      0.2089
     36  OG        10.7540   33.7640   11.3380 O.3   100  SER100     -0.2183
     37  N         14.4970   30.4820   10.1450 N.3   102  CYS102     -0.1235
     38  CA        15.1970   30.7730    8.8950 C.3   102  CYS102      0.1677
     39  C         16.4300   29.9180    8.7800 C.2   102  CYS102      0.2270
     40  O         17.2090   29.7750    9.7660 O.2   102  CYS102     -0.2867
     41  CB        15.5680   32.2790    8.8270 C.3   102  CYS102      0.0956
     42  SG        16.7080   32.7880    7.4800 S.3   102  CYS102     -0.0801
     43  N         17.7970   32.1260    1.1460 N.3   181  SER181     -0.1217
     44  CA        17.2580   31.6640    2.4170 C.3   181  SER181      0.1889
     45  C         15.8290   31.1620    2.2900 C.2   181  SER181      0.2288
     46  O         15.0810   31.5750    1.3980 O.2   181  SER181     -0.2866
     47  CB        17.3440   32.7900    3.4750 C.3   181  SER181      0.2089
     48  OG        16.4700   33.8720    3.1510 O.3   181  SER181     -0.2183
     49  N         12.5380   30.8410    4.8030 N.3   183  VAL183     -0.1245
     50  CA        11.8900   31.2020    6.0740 C.3   183  VAL183      0.1561
     51  C         10.5700   30.4480    6.2440 C.2   183  VAL183      0.2260
     52  O          9.6720   30.4670    5.3580 O.2   183  VAL183     -0.2867
     53  CB        11.7100   32.7210    6.2310 C.3   183  VAL183      0.0252
     54  CG1       11.3580   33.0550    7.6770 C.3   183  VAL183      0.0019
     55  CG2       13.0190   33.4420    5.8230 C.3   183  VAL183      0.0019
     56  N          7.5530   30.6790    8.1430 N.3   185  ILE185     -0.1245
     57  CA         6.8100   31.6670    8.9620 C.3   185  ILE185      0.1561
     58  C          5.5150   31.0170    9.4430 C.2   185  ILE185      0.2260
     59  O          4.7880   30.5270    8.6360 O.2   185  ILE185     -0.2867
     60  CB         6.4710   32.9630    8.2310 C.3   185  ILE185      0.0252
     61  CG1        7.6940   33.6240    7.6080 C.3   185  ILE185      0.0019
     62  CG2        5.8110   34.0350    9.1700 C.3   185  ILE185      0.0019
     63  CD1        7.3790   34.6560    6.5160 C.3   185  ILE185      0.0001
     64  N          2.0360   32.1580   11.1640 N.3   187  TYR187     -0.1241
     65  CA         1.0240   33.1370   11.5870 C.3   187  TYR187      0.1605
     66  C         -0.0180   32.3770   12.4060 C.2   187  TYR187      0.2264
     67  O         -0.6290   31.4700   11.8710 O.2   187  TYR187     -0.2867
     68  CB         0.3330   33.7610   10.3850 C.3   187  TYR187      0.0534
     69  CG         1.1330   34.8430    9.7360 C.ar  187  TYR187     -0.0201
     70  CD1        2.0000   34.5700    8.6530 C.ar  187  TYR187     -0.0009
     71  CD2        1.0890   36.1510   10.2310 C.ar  187  TYR187     -0.0009
     72  CE1        2.7710   35.6200    8.0690 C.ar  187  TYR187      0.0417
     73  CE2        1.8500   37.1700    9.6570 C.ar  187  TYR187      0.0417
     74  CZ         2.6740   36.9010    8.5970 C.ar  187  TYR187      0.1957
     75  OH         3.3760   37.9500    8.0260 O.3   187  TYR187     -0.2866
     76  N         -0.5170   42.8200    9.3310 N.3   208  SER208     -0.1202
     77  CA         0.5160   42.1270   10.0740 C.3   208  SER208      0.2020
     78  C          1.9070   42.6270    9.7050 C.2   208  SER208      0.2618
     79  O          2.7770   42.5670   10.5330 O.2   208  SER208     -0.2717
     80  CB         0.4570   40.6350    9.8260 C.3   208  SER208      0.2103
     81  OG        -0.7110   40.0420   10.4220 O.3   208  SER208     -0.2182
     82  N          2.1150   43.0950    8.4620 N.am  209  PHE209     -0.1975
     83  CA         3.4100   43.6300    8.0180 C.3   209  PHE209      0.1639
     84  C          3.1680   44.7110    7.0250 C.2   209  PHE209      0.2290
     85  O          2.3470   44.5240    6.1150 O.2   209  PHE209     -0.2864
     86  CB         4.2150   42.5270    7.3340 C.3   209  PHE209      0.0560
     87  CG         5.6870   42.8180    7.1950 C.ar  209  PHE209     -0.0200
     88  CD1        6.4960   42.7860    8.2880 C.ar  209  PHE209     -0.0042
     89  CD2        6.2750   43.0480    5.9340 C.ar  209  PHE209     -0.0042
     90  CE1        7.9040   43.0250    8.1720 C.ar  209  PHE209     -0.0003
     91  CE2        7.6460   43.2460    5.8380 C.ar  209  PHE209     -0.0003
     92  CZ         8.4510   43.2700    6.9590 C.ar  209  PHE209     -0.0000
     93  N          6.3930   47.2570    1.6500 N.3   212  HIS212     -0.1241
     94  CA         7.8120   47.1490    1.4130 C.3   212  HIS212      0.1621
     95  C          8.0520   46.6270    0.0270 C.2   212  HIS212      0.2264
     96  O          7.1280   46.0570   -0.6300 O.2   212  HIS212     -0.2867
     97  CB         8.4330   46.1250    2.4320 C.3   212  HIS212      0.0745
     98  CG         7.9250   44.7450    2.2560 C.ar  212  HIS212      0.0817
     99  ND1        6.6710   44.3570    2.6910 N.ar  212  HIS212     -0.2268
    100  CD2        8.4850   43.6540    1.6620 C.ar  212  HIS212      0.1154
    101  CE1        6.5060   43.0630    2.4150 C.ar  212  HIS212      0.1986
    102  NE2        7.5650   42.6260    1.7390 N.ar  212  HIS212     -0.2212
    103  N         10.7290   43.6820   -1.7000 N.3   214  ASP214     -0.1225
    104  CA        11.5330   42.5030   -1.2110 C.3   214  ASP214      0.1805
    105  C         13.0230   42.7280   -1.4420 C.2   214  ASP214      0.2597
    106  O         13.4500   43.3900   -2.4280 O.2   214  ASP214     -0.2718
    107  CB        11.1320   41.1920   -1.8970 C.3   214  ASP214      0.1424
    108  CG         9.8520   40.5930   -1.3400 C.2   214  ASP214      0.3668
    109  OD1        9.2620   41.1960   -0.4280 O.co2 214  ASP214     -0.2456
    110  OD2        9.3720   39.5620   -1.8480 O.co2 214  ASP214     -0.2456
    111  N         13.7940   42.2690   -0.4630 N.am  215  VAL215     -0.1980
    112  CA        15.2650   42.2200   -0.5220 C.3   215  VAL215      0.1595
    113  C         15.5750   40.8350   -1.1220 C.2   215  VAL215      0.2287
    114  O         15.6390   39.7940   -0.4390 O.2   215  VAL215     -0.2864
    115  CB        15.9370   42.4730    0.8480 C.3   215  VAL215      0.0276
    116  CG1       17.4970   42.4190    0.7090 C.3   215  VAL215      0.0022
    117  CG2       15.4950   43.7720    1.4200 C.3   215  VAL215      0.0022
    118  N         11.5780   36.4840   -5.3200 N.3   219  THR219     -0.1218
    119  CA        11.0180   35.7590   -4.1690 C.3   219  THR219      0.1862
    120  C         10.0570   34.6860   -4.7520 C.2   219  THR219      0.2287
    121  O          9.3020   34.9910   -5.6660 O.2   219  THR219     -0.2866
    122  CB        10.2910   36.7350   -3.2680 C.3   219  THR219      0.1770
    123  OG1       11.2170   37.7970   -2.9020 O.3   219  THR219     -0.2211
    124  CG2        9.7000   36.0860   -2.0720 C.3   219  THR219      0.0375
    125  N          2.3590   29.8420    0.2820 N.3   223  GLN223     -0.1245
    126  CA         1.4800   30.1800    1.4350 C.3   223  GLN223      0.1566
    127  C          0.2410   29.3140    1.4970 C.2   223  GLN223      0.2260
    128  O         -0.1980   28.7920    0.4730 O.2   223  GLN223     -0.2867
    129  CB         0.9260   31.5790    1.3000 C.3   223  GLN223      0.0367
    130  CG         1.9320   32.6580    1.1820 C.3   223  GLN223      0.0905
    131  CD         1.3550   34.0230    1.4930 C.2   223  GLN223      0.2608
    132  OE1        0.3370   34.4240    0.9180 O.2   223  GLN223     -0.2717
    133  NE2        2.0520   34.7700    2.3580 N.am  223  GLN223     -0.0878
    134  N         -2.3210   38.8890    1.0950 N.3   229  LEU229     -0.1245
    135  CA        -1.3950   39.8240    0.4180 C.3   229  LEU229      0.1561
    136  C         -2.0870   40.9010   -0.4090 C.2   229  LEU229      0.2260
    137  O         -3.0890   40.6360   -1.0470 O.2   229  LEU229     -0.2867
    138  CB        -0.4750   39.0250   -0.5240 C.3   229  LEU229      0.0270
    139  CG         0.5960   38.2100    0.2460 C.3   229  LEU229      0.0019
    140  CD1        1.4980   37.3840   -0.7420 C.3   229  LEU229      0.0001
    141  CD2        1.4680   39.1570    1.1700 C.3   229  LEU229      0.0001
    142  N          4.2470   45.7770   -1.6720 N.3   268  HIS268     -0.1241
    143  CA         3.2020   44.9410   -1.1480 C.3   268  HIS268      0.1621
    144  C          3.2460   44.9370    0.3680 C.2   268  HIS268      0.2264
    145  O          4.2620   45.3480    0.9770 O.2   268  HIS268     -0.2867
    146  CB         3.3130   43.5120   -1.7380 C.3   268  HIS268      0.0745
    147  CG         4.6160   42.8540   -1.4910 C.ar  268  HIS268      0.0817
    148  ND1        5.7650   43.1910   -2.1790 N.ar  268  HIS268     -0.2268
    149  CD2        4.9600   41.8680   -0.6230 C.ar  268  HIS268      0.1154
    150  CE1        6.7580   42.4270   -1.7470 C.ar  268  HIS268      0.1986
    151  NE2        6.2940   41.6220   -0.7950 N.ar  268  HIS268     -0.2212
    152  N          1.0830   42.8500    3.9820 N.3   270  VAL270     -0.1245
    153  CA         0.4000   41.6190    4.4910 C.3   270  VAL270      0.1561
    154  C         -0.7280   42.0680    5.4320 C.2   270  VAL270      0.2260
    155  O         -0.4630   42.6550    6.5230 O.2   270  VAL270     -0.2867
    156  CB         1.3250   40.7350    5.2840 C.3   270  VAL270      0.0252
    157  CG1        0.5080   39.5230    5.8700 C.3   270  VAL270      0.0019
    158  CG2        2.5460   40.3180    4.4440 C.3   270  VAL270      0.0019
    159  N          3.4640   31.0090    5.7820 N.3   279  SER279     -0.1217
    160  CA         4.0790   31.7340    4.6730 C.3   279  SER279      0.1889
    161  C          5.5770   31.2920    4.5900 C.2   279  SER279      0.2288
    162  O          6.3430   31.3970    5.5790 O.2   279  SER279     -0.2866
    163  CB         3.8870   33.1920    4.8630 C.3   279  SER279      0.2089
    164  OG         4.4030   33.9140    3.7960 O.3   279  SER279     -0.2183
    165  N          8.5310   31.7130    2.3490 N.3   281  PRO281     -0.2116
    166  CA         9.3530   32.2440    1.2980 C.3   281  PRO281      0.1372
    167  C         10.7400   31.6530    1.1240 C.2   281  PRO281      0.2244
    168  O         11.3960   31.2870    2.0830 O.2   281  PRO281     -0.2868
    169  CB         9.4700   33.7360    1.6540 C.3   281  PRO281      0.0268
    170  CG         9.5160   33.6920    3.1080 C.3   281  PRO281      0.0207
    171  CD         8.4130   32.6580    3.4570 C.3   281  PRO281      0.0892
    172  N         13.9570   33.3210   -0.6300 N.3   283  PHE283     -0.1241
    173  CA        14.5390   34.5560   -1.1880 C.3   283  PHE283      0.1605
    174  C         15.7250   34.1480   -2.0510 C.2   283  PHE283      0.2264
    175  O         16.7260   33.5940   -1.5440 O.2   283  PHE283     -0.2867
    176  CB        14.9480   35.5270   -0.0910 C.3   283  PHE283      0.0534
    177  CG        13.7330   35.9610    0.8090 C.ar  283  PHE283     -0.0203
    178  CD1       13.5770   35.4600    2.1020 C.ar  283  PHE283     -0.0042
    179  CD2       12.7260   36.7920    0.3030 C.ar  283  PHE283     -0.0042
    180  CE1       12.4650   35.8920    2.8860 C.ar  283  PHE283     -0.0003
    181  CE2       11.6370   37.1850    1.0720 C.ar  283  PHE283     -0.0003
    182  CZ        11.5070   36.7320    2.3470 C.ar  283  PHE283     -0.0000
    183  N         18.7280   34.8350   -3.6810 N.3   285  ASN285     -0.1240
    184  CA        19.9100   35.7340   -3.5440 C.3   285  ASN285      0.1653
    185  C         21.0720   35.0820   -4.3200 C.2   285  ASN285      0.2266
    186  O         21.1720   33.8570   -4.4310 O.2   285  ASN285     -0.2867
    187  CB        20.3010   35.9130   -2.0760 C.3   285  ASN285      0.1155
    188  CG        19.2350   36.6280   -1.2360 C.2   285  ASN285      0.2627
    189  OD1       18.5590   37.5810   -1.7090 O.2   285  ASN285     -0.2716
    190  ND2       19.0260   36.1280   -0.0040 N.am  285  ASN285     -0.0877
    191  N         18.8970   44.0850    4.2720 N.3   319  LEU319     -0.1245
    192  CA        18.2780   43.4260    5.3750 C.3   319  LEU319      0.1561
    193  C         18.2700   44.2560    6.6200 C.2   319  LEU319      0.2260
    194  O         17.2900   44.1990    7.3980 O.2   319  LEU319     -0.2867
    195  CB        18.8850   42.0570    5.6300 C.3   319  LEU319      0.0270
    196  CG        18.7330   41.0130    4.4930 C.3   319  LEU319      0.0019
    197  CD1       19.3790   39.7430    4.9840 C.3   319  LEU319      0.0001
    198  CD2       17.2460   40.7080    4.0040 C.3   319  LEU319      0.0001
    199  N         15.3960   46.9360    6.0330 N.3   322  LEU322     -0.1245
    200  CA        14.0850   46.3630    6.1780 C.3   322  LEU322      0.1561
    201  C         13.6820   46.2650    7.6720 C.2   322  LEU322      0.2260
    202  O         12.5520   46.5800    8.0430 O.2   322  LEU322     -0.2867
    203  CB        14.0450   44.9520    5.5330 C.3   322  LEU322      0.0270
    204  CG        12.8220   44.4840    4.6970 C.3   322  LEU322      0.0019
    205  CD1       12.5780   42.9430    4.7730 C.3   322  LEU322      0.0001
    206  CD2       11.4820   45.3300    4.8650 C.3   322  LEU322      0.0001
    207  N         11.6180   41.1220   12.7110 N.3   329  THR329     -0.1218
    208  CA        10.6570   40.0340   12.5090 C.3   329  THR329      0.1862
    209  C         10.9100   38.8930   13.4960 C.2   329  THR329      0.2287
    210  O         10.1100   37.9630   13.4430 O.2   329  THR329     -0.2866
    211  CB        10.5850   39.5300   11.0330 C.3   329  THR329      0.1770
    212  OG1       11.7960   38.8690   10.6230 O.3   329  THR329     -0.2211
    213  CG2       10.2600   40.7530   10.1010 C.3   329  THR329      0.0375
@<TRIPOS>BOND
     1   121   120    2
     2   118   119    1
     3   120   119    1
     4   186   185    2
     5   185   184    1
     6   119   122    1
     7   183   184    1
     8   184   187    1
     9   122   123    1
    10   122   124    1
    11   106   105    2
    12   148   150   ar
    13   148   147   ar
    14   187   188    1
    15   174   175    2
    16   174   173    1
    17   107   108    1
    18   107   104    1
    19   110   108   ar
    20   150   151   ar
    21   146   147    1
    22   146   143    1
    23   189   188    2
    24   103   104    1
    25   142   143    1
    26   147   149   ar
    27   105   104    1
    28   105   111   am
    29   108   109   ar
    30   188   190   am
    31   173   172    1
    32   173   176    1
    33   143   144    1
    34   113   112    1
    35   113   114    2
    36   137   136    2
    37   151   149   ar
    38   140   139    1
    39    96    95    2
    40   138   139    1
    41   138   135    1
    42   112   111    1
    43   112   115    1
    44   136   135    1
    45   176   177    1
    46    95    94    1
    47   139   141    1
    48   125   126    1
    49   179   177   ar
    50   179   181   ar
    51   144   145    2
    52   135   134    1
    53   128   127    2
    54   116   115    1
    55   177   178   ar
    56   115   117    1
    57   132   131    2
    58   181   182   ar
    59   167   166    1
    60   167   168    2
    61    43    44    1
    62   130   129    1
    63   130   131    1
    64   166   169    1
    65   166   165    1
    66   129   126    1
    67    46    45    2
    68    94    93    1
    69    94    97    1
    70   126   127    1
    71   131   133   am
    72   169   170    1
    73   100   102   ar
    74   100    98   ar
    75   102   101   ar
    76   178   180   ar
    77    98    97    1
    78    98    99   ar
    79    45    44    1
    80   182   180   ar
    81   165   171    1
    82   101    99   ar
    83    44    47    1
    84   170   171    1
    85    48    47    1
    86    11     9    1
    87   164   163    1
    88    10     9    1
    89   152   153    1
    90   198   196    1
    91   191   192    1
    92     9     8    2
    93   158   156    1
    94   153   156    1
    95   153   154    1
    96   196   197    1
    97   196   195    1
    98   161   160    1
    99   161   162    2
   100   160   163    1
   101   160   159    1
   102   204   205    1
   103   204   206    1
   104   204   203    1
   105    49    50    1
   106   156   157    1
   107    52    51    2
   108   192   195    1
   109   192   193    1
   110   154   155    2
   111     8     7    1
   112   203   200    1
   113    55    53    1
   114    91    89   ar
   115    91    92   ar
   116    89    87   ar
   117   199   200    1
   118    50    53    1
   119    50    51    1
   120    85    84    2
   121   200   201    1
   122    53    54    1
   123     7     6    1
   124    63    61    1
   125   193   194    2
   126    92    90   ar
   127    84    83    1
   128    87    86    1
   129    87    88   ar
   130    86    83    1
   131    42    41    1
   132    61    60    1
   133   201   202    2
   134     6     5    1
   135    83    82    1
   136    75    74    1
   137    72    74   ar
   138    72    70   ar
   139    56    57    1
   140    90    88   ar
   141    60    57    1
   142    60    62    1
   143     5     2    1
   144    82    78   am
   145    74    73   ar
   146    59    58    2
   147    70    69   ar
   148    39    38    1
   149    39    40    2
   150    41    38    1
   151    38    37    1
   152    57    58    1
   153    76    77    1
   154    73    71   ar
   155    78    77    1
   156    78    79    2
   157    69    71   ar
   158    69    68    1
   159    80    77    1
   160    80    81    1
   161     2     3    1
   162     2     1    1
   163   213   211    1
   164     4     3    2
   165    68    65    1
   166    23    22    1
   167   212   211    1
   168   211   208    1
   169    35    36    1
   170    35    32    1
   171    64    65    1
   172    22    21   ar
   173    22    20   ar
   174    21    19   ar
   175    65    66    1
   176    30    28    1
   177    67    66    2
   178    20    18   ar
   179    32    33    1
   180    32    31    1
   181    19    17   ar
   182    33    34    2
   183   208   207    1
   184   208   209    1
   185    28    29    1
   186    28    25    1
   187    18    17   ar
   188    17    16    1
   189   210   209    2
   190    25    26    1
   191    25    24    1
   192    16    13    1
   193    26    27    2
   194    12    13    1
   195    13    14    1
   196    15    14    2
