@<TRIPOS>MOLECULE
tmp/2vbfB00.pdb
 149 142 0 0 0
SMALL
GASTEIGER

@<TRIPOS>ATOM
      1  N         26.7840  108.1100   22.3910 N.3    59  TYR59      -0.1241
      2  CA        26.4890  109.4980   22.0460 C.3    59  TYR59       0.1605
      3  C         26.6300  110.4310   23.2560 C.2    59  TYR59       0.2264
      4  O         27.2060  111.5190   23.1640 O.2    59  TYR59      -0.2867
      5  CB        25.0760  109.6240   21.4990 C.3    59  TYR59       0.0534
      6  CG        24.7830  109.0270   20.1180 C.ar   59  TYR59      -0.0201
      7  CD1       25.7820  108.8330   19.1550 C.ar   59  TYR59      -0.0009
      8  CD2       23.4690  108.7200   19.7660 C.ar   59  TYR59      -0.0009
      9  CE1       25.4620  108.3210   17.9020 C.ar   59  TYR59       0.0417
     10  CE2       23.1500  108.2150   18.5250 C.ar   59  TYR59       0.0417
     11  CZ        24.1480  108.0280   17.5900 C.ar   59  TYR59       0.1957
     12  OH        23.7930  107.5450   16.3460 O.3    59  TYR59      -0.2866
     13  N         28.6350  102.7190   16.4430 N.3    86  ASN86      -0.1240
     14  CA        28.3890  103.9210   15.6570 C.3    86  ASN86       0.1653
     15  C         28.7150  105.2110   16.4270 C.2    86  ASN86       0.2266
     16  O         29.2220  106.1780   15.8530 O.2    86  ASN86      -0.2867
     17  CB        26.9550  103.9740   15.1490 C.3    86  ASN86       0.1155
     18  CG        26.7240  105.1700   14.2670 C.2    86  ASN86       0.2627
     19  OD1       27.4890  105.4070   13.3200 O.2    86  ASN86      -0.2716
     20  ND2       25.7200  105.9680   14.5920 N.am   86  ASN86      -0.0877
     21  N         21.7840  117.5410   12.7150 N.3   376  GLN376     -0.1231
     22  CA        21.7850  117.5650   11.2620 C.3   376  GLN376      0.1698
     23  C         20.3490  117.6480   10.7680 C.2   376  GLN376      0.2593
     24  O         19.4500  117.0200   11.3300 O.2   376  GLN376     -0.2718
     25  CB        22.4540  116.3070   10.7180 C.3   376  GLN376      0.0381
     26  CG        23.9210  116.1890   11.0960 C.3   376  GLN376      0.0905
     27  CD        24.7350  117.4090   10.6680 C.2   376  GLN376      0.2608
     28  OE1       25.1810  118.2050   11.5070 O.2   376  GLN376     -0.2717
     29  NE2       24.8960  117.5810    9.3660 N.am  376  GLN376     -0.0878
     30  N         20.1500  118.4460    9.7280 N.am  377  GLY377     -0.1942
     31  CA        18.7960  118.8180    9.2820 C.3   377  GLY377      0.2014
     32  C         18.6570  120.3350    9.3080 C.2   377  GLY377      0.2640
     33  O         19.6560  121.0550    9.3650 O.2   377  GLY377     -0.2714
     34  N         17.4250  120.8390    9.3010 N.am  378  THR378     -0.1936
     35  CA        17.2380  122.2880    9.3230 C.3   378  THR378      0.2028
     36  C         17.8880  122.9420   10.5560 C.2   378  THR378      0.2642
     37  O         18.4030  124.0510   10.4560 O.2   378  THR378     -0.2714
     38  CB        15.7540  122.7160    9.2230 C.3   378  THR378      0.1808
     39  OG1       15.0490  122.3000   10.3960 O.3   378  THR378     -0.2208
     40  CG2       15.0910  122.1280    7.9450 C.3   378  THR378      0.0379
     41  N         17.8870  122.2590   11.7040 N.am  379  SER379     -0.1949
     42  CA        18.4960  122.8300   12.9260 C.3   379  SER379      0.1924
     43  C         19.9700  123.2110   12.7400 C.2   379  SER379      0.2314
     44  O         20.3800  124.3200   13.1000 O.2   379  SER379     -0.2863
     45  CB        18.3510  121.8820   14.1120 C.3   379  SER379      0.2116
     46  OG        16.9960  121.7370   14.4750 O.3   379  SER379     -0.2180
     47  N         27.8140  113.0970   11.2880 N.3   401  GLY401     -0.1210
     48  CA        26.4470  113.4210   10.8870 C.3   401  GLY401      0.1956
     49  C         25.4160  112.3380   11.1750 C.2   401  GLY401      0.2613
     50  O         24.5840  112.0360   10.3370 O.2   401  GLY401     -0.2717
     51  N         25.4750  111.7600   12.3680 N.am  402  SER402     -0.1938
     52  CA        24.5620  110.6790   12.7470 C.3   402  SER402      0.2055
     53  C         23.3210  111.2400   13.4280 C.2   402  SER402      0.2642
     54  O         23.3810  111.6150   14.5940 O.2   402  SER402     -0.2714
     55  CB        25.2530  109.6890   13.6640 C.3   402  SER402      0.2130
     56  OG        24.4690  108.5240   13.8440 O.3   402  SER402     -0.2179
     57  N         22.1900  111.2690   12.7280 N.am  403  ILE403     -0.1977
     58  CA        20.9950  111.8790   13.3230 C.3   403  ILE403      0.1596
     59  C         20.5370  111.1130   14.5660 C.2   403  ILE403      0.2287
     60  O         20.5980  109.8820   14.6110 O.2   403  ILE403     -0.2864
     61  CB        19.8350  112.1060   12.3290 C.3   403  ILE403      0.0276
     62  CG1       19.2490  110.8080   11.7910 C.3   403  ILE403      0.0022
     63  CG2       20.2830  113.0520   11.2260 C.3   403  ILE403      0.0022
     64  CD1       17.8850  110.9850   11.1210 C.3   403  ILE403      0.0001
     65  N         15.4430  117.9490   15.1920 N.3   427  GLY427     -0.1210
     66  CA        14.2720  117.6860   14.3760 C.3   427  GLY427      0.1956
     67  C         13.4410  116.5090   14.8490 C.2   427  GLY427      0.2612
     68  O         13.9160  115.6370   15.5980 O.2   427  GLY427     -0.2717
     69  N         12.1860  116.4680   14.4070 N.am  428  ASP428     -0.1959
     70  CA        11.2750  115.3730   14.7440 C.3   428  ASP428      0.1840
     71  C         11.8330  114.0080   14.3080 C.2   428  ASP428      0.2623
     72  O         11.8130  113.0390   15.0830 O.2   428  ASP428     -0.2715
     73  CB         9.8420  115.5910   14.1870 C.3   428  ASP428      0.1450
     74  CG         9.7920  115.9600   12.7050 C.2   428  ASP428      0.3671
     75  OD1       10.8230  116.3130   12.1120 O.co2 428  ASP428     -0.2456
     76  OD2        8.6820  115.9270   12.1220 O.co2 428  ASP428     -0.2456
     77  N         12.3630  113.9680   13.0910 N.am  429  GLY429     -0.1940
     78  CA        12.9080  112.7340   12.5280 C.3   429  GLY429      0.2014
     79  C         14.0550  112.1970   13.3670 C.2   429  GLY429      0.2639
     80  O         14.1410  110.9960   13.6160 O.2   429  GLY429     -0.2714
     81  N         14.9120  113.1080   13.8220 N.am  430  SER430     -0.1949
     82  CA        16.1190  112.7430   14.5540 C.3   430  SER430      0.1924
     83  C         15.8350  112.3600   15.9930 C.2   430  SER430      0.2314
     84  O         16.4450  111.4220   16.5300 O.2   430  SER430     -0.2863
     85  CB        17.1120  113.8880   14.5180 C.3   430  SER430      0.2116
     86  OG        17.5130  114.1650   13.1920 O.3   430  SER430     -0.2180
     87  N         15.1240  108.6670   16.8220 N.3   433  LEU433     -0.1245
     88  CA        16.2090  107.6720   16.9610 C.3   433  LEU433      0.1561
     89  C         16.6910  107.4330   18.3970 C.2   433  LEU433      0.2260
     90  O         17.1880  106.3420   18.7110 O.2   433  LEU433     -0.2867
     91  CB        17.4080  108.0070   16.0560 C.3   433  LEU433      0.0270
     92  CG        17.1600  107.8120   14.5630 C.3   433  LEU433      0.0019
     93  CD1       16.6650  109.1180   13.9440 C.3   433  LEU433      0.0001
     94  CD2       18.3970  107.2880   13.8180 C.3   433  LEU433      0.0001
     95  N         11.8160  120.4270   16.4100 N.3   453  ILE453     -0.1245
     96  CA        11.2510  121.0120   15.2080 C.3   453  ILE453      0.1561
     97  C         10.3490  119.9920   14.5180 C.2   453  ILE453      0.2260
     98  O         10.8120  119.0860   13.8080 O.2   453  ILE453     -0.2867
     99  CB        12.3370  121.5210   14.2330 C.3   453  ILE453      0.0252
    100  CG1       13.2030  122.5930   14.9180 C.3   453  ILE453      0.0019
    101  CG2       11.6900  122.0520   12.9560 C.3   453  ILE453      0.0019
    102  CD1       14.1200  123.3130   13.9690 C.3   453  ILE453      0.0001
    103  N          8.2720  119.4220   11.7350 N.3   455  ASN455     -0.1240
    104  CA         7.9200  119.8260   10.3680 C.3   455  ASN455      0.1653
    105  C          7.4430  118.6020    9.5910 C.2   455  ASN455      0.2266
    106  O          7.5630  118.5500    8.3620 O.2   455  ASN455     -0.2867
    107  CB         9.0830  120.5400    9.6510 C.3   455  ASN455      0.1155
    108  CG        10.3690  119.7460    9.7170 C.2   455  ASN455      0.2627
    109  OD1       10.3270  118.5500   10.0040 O.2   455  ASN455     -0.2716
    110  ND2       11.5070  120.3980    9.5030 N.am  455  ASN455     -0.0877
    111  N          8.2770  115.3510    9.2890 N.3   457  GLY457     -0.1210
    112  CA         9.1920  114.4640    8.5520 C.3   457  GLY457      0.1956
    113  C         10.5930  115.0000    8.3150 C.2   457  GLY457      0.2612
    114  O         11.0520  115.9100    9.0100 O.2   457  GLY457     -0.2717
    115  N         11.2760  114.4130    7.3300 N.am  458  TYR458     -0.1962
    116  CA        12.6890  114.6880    7.0480 C.3   458  TYR458      0.1771
    117  C         12.8540  115.8290    6.0250 C.2   458  TYR458      0.2620
    118  O         13.0760  115.5930    4.8400 O.2   458  TYR458     -0.2715
    119  CB        13.3760  113.4360    6.4880 C.3   458  TYR458      0.0574
    120  CG        13.3510  112.1580    7.3130 C.ar  458  TYR458     -0.0198
    121  CD1       13.5900  112.1560    8.6920 C.ar  458  TYR458     -0.0009
    122  CD2       13.1580  110.9220    6.6870 C.ar  458  TYR458     -0.0009
    123  CE1       13.6090  110.9580    9.4280 C.ar  458  TYR458      0.0417
    124  CE2       13.1770  109.7310    7.4030 C.ar  458  TYR458      0.0417
    125  CZ        13.4120  109.7430    8.7690 C.ar  458  TYR458      0.1957
    126  OH        13.4070  108.5270    9.4500 O.3   458  TYR458     -0.2866
    127  N         12.7480  117.0760    6.4720 N.am  459  THR459     -0.1937
    128  CA        12.7600  118.1870    5.5340 C.3   459  THR459      0.2028
    129  C         14.0980  118.3330    4.7880 C.2   459  THR459      0.2642
    130  O         14.1130  118.6070    3.5900 O.2   459  THR459     -0.2714
    131  CB        12.3820  119.5070    6.2160 C.3   459  THR459      0.1808
    132  OG1       10.9780  119.5110    6.4850 O.3   459  THR459     -0.2208
    133  CG2       12.7530  120.7100    5.3180 C.3   459  THR459      0.0379
    134  N         15.2200  118.1390    5.4740 N.am  460  VAL460     -0.1963
    135  CA        16.5230  118.1840    4.7910 C.3   460  VAL460      0.1727
    136  C         16.5860  117.1730    3.6380 C.2   460  VAL460      0.2616
    137  O         17.1410  117.4720    2.5870 O.2   460  VAL460     -0.2715
    138  CB        17.7190  118.0000    5.7550 C.3   460  VAL460      0.0290
    139  CG1       17.5720  116.7340    6.5880 C.3   460  VAL460      0.0023
    140  CG2       19.0440  118.0050    4.9880 C.3   460  VAL460      0.0023
    141  N         15.9910  115.9980    3.8220 N.am  461  GLU461     -0.1977
    142  CA        15.9830  114.9840    2.7480 C.3   461  GLU461      0.1602
    143  C         15.0800  115.4140    1.6000 C.2   461  GLU461      0.2287
    144  O         15.4330  115.2350    0.4310 O.2   461  GLU461     -0.2864
    145  CB        15.5230  113.6220    3.2590 C.3   461  GLU461      0.0415
    146  CG        16.3190  113.0490    4.4360 C.3   461  GLU461      0.1163
    147  CD        17.7140  112.5950    4.0560 C.2   461  GLU461      0.3649
    148  OE1       17.9030  111.3730    3.8460 O.co2 461  GLU461     -0.2457
    149  OE2       18.6210  113.4530    3.9700 O.co2 461  GLU461     -0.2457
@<TRIPOS>BOND
     1   144   143    2
     2   143   142    1
     3   137   136    2
     4   142   145    1
     5   142   141    1
     6   145   146    1
     7   130   129    2
     8   136   141   am
     9   136   135    1
    10   148   147   ar
    11   149   147   ar
    12   147   146    1
    13   129   134   am
    14   129   128    1
    15   135   134    1
    16   135   138    1
    17   118   117    2
    18   140   138    1
    19   133   131    1
    20   128   131    1
    21   128   127    1
    22   138   139    1
    23   117   127   am
    24   117   116    1
    25   131   132    1
    26   119   116    1
    27   119   120    1
    28   122   120   ar
    29   122   124   ar
    30   116   115    1
    31   120   121   ar
    32   115   113   am
    33   124   125   ar
    34    40    38    1
    35   113   112    1
    36   113   114    2
    37   106   105    2
    38   112   111    1
    39   121   123   ar
    40   125   123   ar
    41   125   126    1
    42    38    35    1
    43    38    39    1
    44    31    32    1
    45    31    30    1
    46    34    32   am
    47    34    35    1
    48    32    33    2
    49    35    36    1
    50    29    27   am
    51   110   108   am
    52   105   104    1
    53   107   108    1
    54   107   104    1
    55   108   109    2
    56    30    23   am
    57    50    49    2
    58   104   103    1
    59    37    36    2
    60    36    41   am
    61    27    26    1
    62    27    28    2
    63    25    26    1
    64    25    22    1
    65    23    22    1
    66    23    24    2
    67    48    49    1
    68    48    47    1
    69    64    62    1
    70    49    51   am
    71    63    61    1
    72    22    21    1
    73    41    42    1
    74    62    61    1
    75    75    74   ar
    76    76    74   ar
    77    61    58    1
    78    51    52    1
    79    78    77    1
    80    78    79    1
    81    74    73    1
    82    57    58    1
    83    57    53   am
    84    43    42    1
    85    43    44    2
    86    52    53    1
    87    52    55    1
    88    42    45    1
    89   101    99    1
    90    77    71   am
    91    86    85    1
    92    19    18    2
    93    58    59    1
    94    79    80    2
    95    79    81   am
    96    53    54    2
    97    55    56    1
    98    98    97    2
    99    94    92    1
   100    81    82    1
   101    93    92    1
   102   102   100    1
   103    45    46    1
   104    73    70    1
   105    99   100    1
   106    99    96    1
   107    18    20   am
   108    18    17    1
   109    71    70    1
   110    71    72    2
   111    66    67    1
   112    66    65    1
   113    69    70    1
   114    69    67   am
   115    85    82    1
   116    97    96    1
   117    82    83    1
   118    92    91    1
   119    59    60    2
   120    67    68    2
   121    17    14    1
   122    96    95    1
   123    14    15    1
   124    14    13    1
   125    16    15    2
   126    83    84    2
   127    91    88    1
   128    12    11    1
   129    87    88    1
   130    88    89    1
   131    11     9   ar
   132    11    10   ar
   133     9     7   ar
   134    89    90    2
   135    10     8   ar
   136     7     6   ar
   137     8     6   ar
   138     6     5    1
   139     5     2    1
   140     2     1    1
   141     2     3    1
   142     4     3    2
