@<TRIPOS>MOLECULE
tmp/2vbgB00.pdb
 75 72 0 0 0
SMALL
GASTEIGER

@<TRIPOS>ATOM
      1  N         25.3640    7.7370  -29.9220 N.3    28  VAL28      -0.1231
      2  CA        24.2720    8.6700  -30.1970 C.3    28  VAL28       0.1678
      3  C         24.8640    9.9390  -30.8370 C.2    28  VAL28       0.2434
      4  O         25.8300   10.5070  -30.3150 O.2    28  VAL28      -0.2733
      5  CB        23.5010    9.0240  -28.9030 C.3    28  VAL28       0.0265
      6  CG1       22.3750   10.0620  -29.1800 C.3    28  VAL28       0.0020
      7  CG2       22.9250    7.7460  -28.2430 C.3    28  VAL28       0.0020
      8  N         24.2920   10.3860  -31.9740 N.am   29  PRO29      -0.2718
      9  CA        24.8300   11.5840  -32.6340 C.3    29  PRO29       0.1535
     10  C         24.5930   12.8830  -31.8630 C.2    29  PRO29       0.2599
     11  O         23.6860   12.9640  -31.0350 O.2    29  PRO29      -0.2715
     12  CB        24.0720   11.6380  -33.9730 C.3    29  PRO29       0.0310
     13  CG        23.3390   10.3480  -34.0840 C.3    29  PRO29       0.0237
     14  CD        23.1470    9.8270  -32.7080 C.3    29  PRO29       0.0939
     15  N         25.4110   13.8880  -32.1650 N.am   30  GLY30      -0.1941
     16  CA        25.2090   15.2600  -31.7120 C.3    30  GLY30       0.2014
     17  C         25.9130   16.1900  -32.6810 C.2    30  GLY30       0.2638
     18  O         26.8140   15.7580  -33.3980 O.2    30  GLY30      -0.2714
     19  N         25.5250   17.4610  -32.7270 N.am   31  ASP31      -0.1971
     20  CA        26.1110   18.3570  -33.7410 C.3    31  ASP31       0.1709
     21  C         27.6600   18.3650  -33.6880 C.2    31  ASP31       0.2293
     22  O         28.3110   18.4820  -34.7180 O.2    31  ASP31      -0.2864
     23  CB        25.5100   19.7740  -33.7070 C.3    31  ASP31       0.1436
     24  CG        25.8680   20.5520  -32.4530 C.2    31  ASP31       0.3671
     25  OD1       25.7750   19.9860  -31.3420 O.co2  31  ASP31      -0.2456
     26  OD2       26.2150   21.7470  -32.5790 O.co2  31  ASP31      -0.2456
     27  N         22.8370    7.0820  -24.5720 N.3    54  GLU54      -0.1245
     28  CA        24.2790    6.8750  -24.4410 C.3    54  GLU54       0.1567
     29  C         24.6560    5.8590  -23.3610 C.2    54  GLU54       0.2260
     30  O         25.6390    5.1210  -23.5280 O.2    54  GLU54      -0.2867
     31  CB        24.9970    8.2110  -24.1630 C.3    54  GLU54       0.0388
     32  CG        24.9820    9.2000  -25.3430 C.3    54  GLU54       0.1160
     33  CD        23.7550   10.0990  -25.3970 C.2    54  GLU54       0.3649
     34  OE1       22.7920    9.8840  -24.6310 O.co2  54  GLU54      -0.2457
     35  OE2       23.7610   11.0380  -26.2230 O.co2  54  GLU54      -0.2457
     36  N         28.4800   12.7640  -27.9160 N.3    76  THR76      -0.1218
     37  CA        28.7010   14.2040  -28.0250 C.3    76  THR76       0.1862
     38  C         29.1800   14.7750  -26.6830 C.2    76  THR76       0.2287
     39  O         28.8670   14.2470  -25.6190 O.2    76  THR76      -0.2866
     40  CB        27.4350   14.9500  -28.5290 C.3    76  THR76       0.1770
     41  OG1       27.8120   16.2050  -29.1130 O.3    76  THR76      -0.2211
     42  CG2       26.4280   15.1900  -27.4020 C.3    76  THR76       0.0375
     43  N         26.9190   16.2180  -22.5250 N.3    79  VAL79      -0.1245
     44  CA        25.6660   15.4810  -22.2920 C.3    79  VAL79       0.1561
     45  C         25.7500   13.9960  -22.6990 C.2    79  VAL79       0.2260
     46  O         25.1870   13.1230  -22.0310 O.2    79  VAL79      -0.2867
     47  CB        24.4500   16.1550  -22.9980 C.3    79  VAL79       0.0252
     48  CG1       24.2170   17.5570  -22.4610 C.3    79  VAL79       0.0019
     49  CG2       24.6050   16.1730  -24.5310 C.3    79  VAL79       0.0019
     50  N         26.3940   10.9130  -19.7900 N.3    83  SER83      -0.1217
     51  CA        25.3400    9.8970  -19.7890 C.3    83  SER83       0.1889
     52  C         25.9270    8.4830  -19.8490 C.2    83  SER83       0.2288
     53  O         25.3580    7.5540  -19.2700 O.2    83  SER83      -0.2866
     54  CB        24.3550   10.1220  -20.9350 C.3    83  SER83       0.2089
     55  OG        23.5720   11.2960  -20.7340 O.3    83  SER83      -0.2183
     56  N         26.3330   25.3140  -25.9710 N.3   117  HIS117     -0.1226
     57  CA        25.5230   24.2190  -25.4490 C.3   117  HIS117      0.1752
     58  C         26.3760   22.9910  -25.0720 C.2   117  HIS117      0.2596
     59  O         27.4280   22.7390  -25.6630 O.2   117  HIS117     -0.2718
     60  CB        24.3980   23.8550  -26.4360 C.3   117  HIS117      0.0759
     61  CG        24.8790   23.3550  -27.7690 C.ar  117  HIS117      0.0818
     62  ND1       25.2990   24.1970  -28.7750 N.ar  117  HIS117     -0.2268
     63  CD2       24.9760   22.0970  -28.2660 C.ar  117  HIS117      0.1154
     64  CE1       25.6440   23.4810  -29.8300 C.ar  117  HIS117      0.1986
     65  NE2       25.4590   22.2020  -29.5460 N.ar  117  HIS117     -0.2212
     66  N         25.8860   22.2530  -24.0750 N.am  118  HIS118     -0.1975
     67  CA        26.5990   21.1320  -23.4250 C.3   118  HIS118      0.1656
     68  C         27.8420   21.5790  -22.6230 C.2   118  HIS118      0.2291
     69  O         28.7940   20.8100  -22.4940 O.2   118  HIS118     -0.2864
     70  CB        27.0170   20.0250  -24.4150 C.3   118  HIS118      0.0771
     71  CG        25.9640   19.6060  -25.3970 C.ar  118  HIS118      0.0820
     72  ND1       24.6120   19.7350  -25.1650 N.ar  118  HIS118     -0.2267
     73  CD2       26.0780   19.0270  -26.6190 C.ar  118  HIS118      0.1154
     74  CE1       23.9420   19.2710  -26.2060 C.ar  118  HIS118      0.1986
     75  NE2       24.8080   18.8330  -27.1030 N.ar  118  HIS118     -0.2212
@<TRIPOS>BOND
     1    22    21    2
     2    13    12    1
     3    13    14    1
     4    12     9    1
     5    20    23    1
     6    20    21    1
     7    20    19    1
     8    23    24    1
     9    18    17    2
    10    19    17   am
    11    14     8    1
    12    17    16    1
    13     9     8    1
    14     9    10    1
    15    26    24   ar
    16    24    25   ar
    17    15    10   am
    18    15    16    1
    19     8     3   am
    20    10    11    2
    21     3     4    2
    22     3     2    1
    23     2     1    1
    24     2     5    1
    25    64    65   ar
    26    64    62   ar
    27    65    63   ar
    28     6     5    1
    29    41    40    1
    30     5     7    1
    31    62    61   ar
    32    40    37    1
    33    40    42    1
    34    63    61   ar
    35    37    36    1
    36    37    38    1
    37    61    60    1
    38    75    73   ar
    39    75    74   ar
    40    38    39    2
    41    73    71   ar
    42    60    57    1
    43    35    33   ar
    44    74    72   ar
    45    56    57    1
    46    59    58    2
    47    57    58    1
    48    33    32    1
    49    33    34   ar
    50    71    72   ar
    51    71    70    1
    52    32    31    1
    53    58    66   am
    54    27    28    1
    55    49    47    1
    56    28    31    1
    57    28    29    1
    58    70    67    1
    59    66    67    1
    60    30    29    2
    61    67    68    1
    62    47    48    1
    63    47    44    1
    64    45    44    1
    65    45    46    2
    66    68    69    2
    67    43    44    1
    68    54    55    1
    69    54    51    1
    70    52    51    1
    71    52    53    2
    72    50    51    1
