@<TRIPOS>MOLECULE
tmp/2vbgB01.pdb
 168 160 0 0 0
SMALL
GASTEIGER

@<TRIPOS>ATOM
      1  N         26.9330    0.3410  -22.4860 N.3    59  TYR59      -0.1241
      2  CA        26.6290   -1.0350  -22.1300 C.3    59  TYR59       0.1605
      3  C         26.7760   -1.9680  -23.3400 C.2    59  TYR59       0.2264
      4  O         27.3470   -3.0580  -23.2290 O.2    59  TYR59      -0.2867
      5  CB        25.2090   -1.1350  -21.5730 C.3    59  TYR59       0.0534
      6  CG        24.9170   -0.5460  -20.1830 C.ar   59  TYR59      -0.0201
      7  CD1       25.9150   -0.3260  -19.2300 C.ar   59  TYR59      -0.0009
      8  CD2       23.5970   -0.2660  -19.8140 C.ar   59  TYR59      -0.0009
      9  CE1       25.5980    0.1750  -17.9540 C.ar   59  TYR59       0.0417
     10  CE2       23.2790    0.2200  -18.5640 C.ar   59  TYR59       0.0417
     11  CZ        24.2710    0.4490  -17.6340 C.ar   59  TYR59       0.1957
     12  OH        23.9240    0.9210  -16.3790 O.3    59  TYR59      -0.2866
     13  N         28.7660    5.7520  -16.4760 N.3    86  ASN86      -0.1240
     14  CA        28.5120    4.5380  -15.7000 C.3    86  ASN86       0.1653
     15  C         28.8390    3.2600  -16.4870 C.2    86  ASN86       0.2266
     16  O         29.3660    2.2970  -15.9310 O.2    86  ASN86      -0.2867
     17  CB        27.0780    4.4810  -15.1890 C.3    86  ASN86       0.1155
     18  CG        26.8680    3.3230  -14.2490 C.2    86  ASN86       0.2627
     19  OD1       27.6390    3.1450  -13.2940 O.2    86  ASN86      -0.2716
     20  ND2       25.8770    2.4910  -14.5390 N.am   86  ASN86      -0.0877
     21  N         21.9400   -9.1620  -12.7880 N.3   374  GLN374     -0.1231
     22  CA        21.9300   -9.1460  -11.3220 C.3   374  GLN374      0.1698
     23  C         20.4890   -9.2410  -10.8250 C.2   374  GLN374      0.2593
     24  O         19.5910   -8.5610  -11.3270 O.2   374  GLN374     -0.2718
     25  CB        22.6080   -7.8880  -10.7800 C.3   374  GLN374      0.0381
     26  CG        24.1070   -7.7950  -11.1050 C.3   374  GLN374      0.0905
     27  CD        24.8910   -9.0380  -10.6770 C.2   374  GLN374      0.2608
     28  OE1       25.3360   -9.8390  -11.5110 O.2   374  GLN374     -0.2717
     29  NE2       25.0180   -9.2220   -9.3800 N.am  374  GLN374     -0.0878
     30  N         20.2830  -10.0990   -9.8360 N.am  375  GLY375     -0.1942
     31  CA        18.9380  -10.5070   -9.4480 C.3   375  GLY375      0.2014
     32  C         18.8340  -12.0150   -9.5200 C.2   375  GLY375      0.2640
     33  O         19.8510  -12.7120   -9.6100 O.2   375  GLY375     -0.2714
     34  N         17.6070  -12.5240   -9.4860 N.am  376  THR376     -0.1936
     35  CA        17.3770  -13.9690   -9.5580 C.3   376  THR376      0.2028
     36  C         18.0740  -14.6050  -10.7790 C.2   376  THR376      0.2642
     37  O         18.6280  -15.6960  -10.6840 O.2   376  THR376     -0.2714
     38  CB        15.8510  -14.3280   -9.5390 C.3   376  THR376      0.1808
     39  OG1       15.2070  -13.8540  -10.7330 O.3   376  THR376     -0.2208
     40  CG2       15.1550  -13.7290   -8.2890 C.3   376  THR376      0.0379
     41  N         18.0790  -13.9040  -11.9090 N.am  377  SER377     -0.1949
     42  CA        18.7000  -14.4190  -13.1350 C.3   377  SER377      0.1924
     43  C         20.1730  -14.7720  -12.9500 C.2   377  SER377      0.2314
     44  O         20.5850  -15.8850  -13.2940 O.2   377  SER377     -0.2863
     45  CB        18.5300  -13.4290  -14.2940 C.3   377  SER377      0.2116
     46  OG        17.1750  -13.3520  -14.6980 O.3   377  SER377     -0.2180
     47  N         27.9600   -4.6250  -11.3400 N.3   399  GLY399     -0.1210
     48  CA        26.5870   -4.9570  -10.9680 C.3   399  GLY399      0.1956
     49  C         25.5450   -3.8930  -11.2480 C.2   399  GLY399      0.2613
     50  O         24.6680   -3.6400  -10.4220 O.2   399  GLY399     -0.2717
     51  N         25.6200   -3.2830  -12.4230 N.am  400  SER400     -0.1938
     52  CA        24.6850   -2.2230  -12.7960 C.3   400  SER400      0.2055
     53  C         23.4520   -2.8180  -13.4670 C.2   400  SER400      0.2642
     54  O         23.5140   -3.2360  -14.6370 O.2   400  SER400     -0.2714
     55  CB        25.3580   -1.2270  -13.7330 C.3   400  SER400      0.2130
     56  OG        24.5250   -0.1160  -13.9600 O.3   400  SER400     -0.2179
     57  N         22.3200   -2.8330  -12.7640 N.am  401  ILE401     -0.1977
     58  CA        21.1160   -3.4520  -13.3510 C.3   401  ILE401      0.1596
     59  C         20.6500   -2.7000  -14.6020 C.2   401  ILE401      0.2287
     60  O         20.6670   -1.4680  -14.6540 O.2   401  ILE401     -0.2864
     61  CB        19.9510   -3.6720  -12.3470 C.3   401  ILE401      0.0276
     62  CG1       19.3990   -2.3690  -11.7690 C.3   401  ILE401      0.0022
     63  CG2       20.3690   -4.6560  -11.2520 C.3   401  ILE401      0.0022
     64  CD1       18.0010   -2.5310  -11.1440 C.3   401  ILE401      0.0001
     65  N         15.6070   -9.5180  -15.2540 N.3   425  GLY425     -0.1210
     66  CA        14.4480   -9.2650  -14.4140 C.3   425  GLY425      0.1956
     67  C         13.6130   -8.0950  -14.8920 C.2   425  GLY425      0.2612
     68  O         14.1110   -7.2270  -15.6130 O.2   425  GLY425     -0.2717
     69  N         12.3460   -8.0610  -14.4840 N.am  426  ASP426     -0.1959
     70  CA        11.4470   -6.9390  -14.8050 C.3   426  ASP426      0.1840
     71  C         12.0190   -5.5740  -14.3460 C.2   426  ASP426      0.2623
     72  O         12.0230   -4.6000  -15.1120 O.2   426  ASP426     -0.2715
     73  CB        10.0200   -7.1710  -14.2500 C.3   426  ASP426      0.1450
     74  CG         9.9920   -7.5590  -12.7600 C.2   426  ASP426      0.3671
     75  OD1       11.0580   -7.8200  -12.1700 O.co2 426  ASP426     -0.2456
     76  OD2        8.8820   -7.6040  -12.1760 O.co2 426  ASP426     -0.2456
     77  N         12.5380   -5.5190  -13.1240 N.am  427  GLY427     -0.1940
     78  CA        13.0970   -4.2770  -12.5800 C.3   427  GLY427      0.2014
     79  C         14.2580   -3.7410  -13.4080 C.2   427  GLY427      0.2639
     80  O         14.3610   -2.5400  -13.6510 O.2   427  GLY427     -0.2714
     81  N         15.1250   -4.6500  -13.8420 N.am  428  SER428     -0.1949
     82  CA        16.3130   -4.3050  -14.6130 C.3   428  SER428      0.1924
     83  C         15.9980   -3.9000  -16.0520 C.2   428  SER428      0.2314
     84  O         16.5850   -2.9430  -16.5630 O.2   428  SER428     -0.2863
     85  CB        17.2930   -5.4730  -14.6050 C.3   428  SER428      0.2116
     86  OG        17.7110   -5.7590  -13.2870 O.3   428  SER428     -0.2180
     87  N         15.2510   -0.1810  -16.8620 N.3   431  LEU431     -0.1245
     88  CA        16.3290    0.8210  -17.0080 C.3   431  LEU431      0.1561
     89  C         16.8270    1.0280  -18.4530 C.2   431  LEU431      0.2260
     90  O         17.3070    2.1180  -18.7770 O.2   431  LEU431     -0.2867
     91  CB        17.5190    0.5150  -16.0900 C.3   431  LEU431      0.0270
     92  CG        17.2810    0.6520  -14.5820 C.3   431  LEU431      0.0019
     93  CD1       16.8530   -0.6750  -13.9930 C.3   431  LEU431      0.0001
     94  CD2       18.5060    1.1810  -13.8370 C.3   431  LEU431      0.0001
     95  N         11.9260  -11.9230  -16.5280 N.3   451  ILE451     -0.1245
     96  CA        11.3850  -12.5060  -15.3040 C.3   451  ILE451      0.1561
     97  C         10.4550  -11.5100  -14.6070 C.2   451  ILE451      0.2260
     98  O         10.9100  -10.6040  -13.8980 O.2   451  ILE451     -0.2867
     99  CB        12.4980  -13.0000  -14.3550 C.3   451  ILE451      0.0252
    100  CG1       13.3510  -14.0750  -15.0530 C.3   451  ILE451      0.0019
    101  CG2       11.9090  -13.5370  -13.0350 C.3   451  ILE451      0.0019
    102  CD1       14.1770  -14.9110  -14.1060 C.3   451  ILE451      0.0001
    103  N          8.4100  -10.9980  -11.8060 N.3   453  ASN453     -0.1240
    104  CA         8.0880  -11.3980  -10.4340 C.3   453  ASN453      0.1653
    105  C          7.6250  -10.1950   -9.6160 C.2   453  ASN453      0.2266
    106  O          7.8450  -10.1270   -8.4040 O.2   453  ASN453     -0.2867
    107  CB         9.2660  -12.1210   -9.7660 C.3   453  ASN453      0.1155
    108  CG        10.5580  -11.3250   -9.8290 C.2   453  ASN453      0.2627
    109  OD1       10.5330  -10.1210  -10.0970 O.2   453  ASN453     -0.2716
    110  ND2       11.6960  -11.9960   -9.6040 N.am  453  ASN453     -0.0877
    111  N          8.4580   -7.0230   -9.2490 N.3   455  GLY455     -0.1210
    112  CA         9.3780   -6.1250   -8.5450 C.3   455  GLY455      0.1956
    113  C         10.8040   -6.6200   -8.3620 C.2   455  GLY455      0.2612
    114  O         11.2720   -7.5140   -9.0740 O.2   455  GLY455     -0.2717
    115  N         11.4910   -6.0200   -7.3890 N.am  456  TYR456     -0.1962
    116  CA        12.9180   -6.2910   -7.1340 C.3   456  TYR456      0.1771
    117  C         13.1130   -7.4230   -6.1000 C.2   456  TYR456      0.2620
    118  O         13.3550   -7.1690   -4.9140 O.2   456  TYR456     -0.2715
    119  CB        13.6220   -5.0290   -6.6230 C.3   456  TYR456      0.0574
    120  CG        13.5630   -3.7550   -7.4640 C.ar  456  TYR456     -0.0198
    121  CD1       13.9090   -3.7380   -8.8200 C.ar  456  TYR456     -0.0009
    122  CD2       13.2340   -2.5370   -6.8630 C.ar  456  TYR456     -0.0009
    123  CE1       13.9030   -2.5360   -9.5570 C.ar  456  TYR456      0.0417
    124  CE2       13.2160   -1.3400   -7.5860 C.ar  456  TYR456      0.0417
    125  CZ        13.5480   -1.3370   -8.9250 C.ar  456  TYR456      0.1957
    126  OH        13.5170   -0.1230   -9.6020 O.3   456  TYR456     -0.2866
    127  N         13.0210   -8.6740   -6.5450 N.am  457  THR457     -0.1937
    128  CA        13.0690   -9.8110   -5.6220 C.3   457  THR457      0.2028
    129  C         14.4260   -9.9520   -4.9070 C.2   457  THR457      0.2642
    130  O         14.4680  -10.2010   -3.7010 O.2   457  THR457     -0.2714
    131  CB        12.6450  -11.1370   -6.3070 C.3   457  THR457      0.1808
    132  OG1       11.2240  -11.1290   -6.5180 O.3   457  THR457     -0.2208
    133  CG2       13.0360  -12.3600   -5.4460 C.3   457  THR457      0.0379
    134  N         15.5310   -9.7750   -5.6230 N.am  458  VAL458     -0.1963
    135  CA        16.8480   -9.7780   -4.9690 C.3   458  VAL458      0.1727
    136  C         16.9270   -8.7750   -3.8030 C.2   458  VAL458      0.2616
    137  O         17.4780   -9.0900   -2.7410 O.2   458  VAL458     -0.2715
    138  CB        18.0000   -9.5390   -5.9720 C.3   458  VAL458      0.0290
    139  CG1       17.7580   -8.2800   -6.8200 C.3   458  VAL458      0.0023
    140  CG2       19.3470   -9.4640   -5.2450 C.3   458  VAL458      0.0023
    141  N         16.3450   -7.5910   -3.9870 N.am  459  GLU459     -0.1977
    142  CA        16.3470   -6.5650   -2.9400 C.3   459  GLU459      0.1602
    143  C         15.4310   -6.9450   -1.7740 C.2   459  GLU459      0.2287
    144  O         15.7790   -6.7060   -0.6210 O.2   459  GLU459     -0.2864
    145  CB        15.9660   -5.1960   -3.5120 C.3   459  GLU459      0.0415
    146  CG        16.9680   -4.6430   -4.5370 C.3   459  GLU459      0.1163
    147  CD        17.9740   -3.6690   -3.9330 C.2   459  GLU459      0.3649
    148  OE1       17.5940   -2.5020   -3.6810 O.co2 459  GLU459     -0.2457
    149  OE2       19.1450   -4.0680   -3.7310 O.co2 459  GLU459     -0.2457
    150  N         17.2920   -9.1240    0.4910 N.3   462  ILE462     -0.1245
    151  CA        18.2700   -8.4180    1.2990 C.3   462  ILE462      0.1561
    152  C         17.6000   -7.6770    2.4540 C.2   462  ILE462      0.2260
    153  O         18.0020   -7.8350    3.6080 O.2   462  ILE462     -0.2867
    154  CB        19.1070   -7.4370    0.4400 C.3   462  ILE462      0.0252
    155  CG1       19.9640   -8.2330   -0.5530 C.3   462  ILE462      0.0019
    156  CG2       19.9850   -6.5540    1.3360 C.3   462  ILE462      0.0019
    157  CD1       20.5530   -7.3980   -1.6960 C.3   462  ILE462      0.0001
    158  N         24.5340  -10.4190    2.1330 N.3   539  PHE539     -0.1241
    159  CA        24.5570   -8.9760    1.8260 C.3   539  PHE539      0.1605
    160  C         24.0270   -8.1770    3.0210 C.2   539  PHE539      0.2264
    161  O         24.6150   -7.1650    3.4170 O.2   539  PHE539     -0.2867
    162  CB        23.7100   -8.6280    0.5900 C.3   539  PHE539      0.0534
    163  CG        24.3300   -9.0220   -0.7310 C.ar  539  PHE539     -0.0203
    164  CD1       23.5560   -9.6410   -1.7070 C.ar  539  PHE539     -0.0042
    165  CD2       25.6730   -8.7540   -1.0120 C.ar  539  PHE539     -0.0042
    166  CE1       24.1050   -9.9980   -2.9400 C.ar  539  PHE539     -0.0003
    167  CE2       26.2310   -9.1100   -2.2400 C.ar  539  PHE539     -0.0003
    168  CZ        25.4440   -9.7310   -3.2060 C.ar  539  PHE539     -0.0000
@<TRIPOS>BOND
     1     3     4    2
     2     3     2    1
     3     1     2    1
     4     2     5    1
     5     5     6    1
     6     6     8   ar
     7     6     7   ar
     8     8    10   ar
     9     7     9   ar
    10    90    89    2
    11    10    11   ar
    12    89    88    1
    13     9    11   ar
    14    11    12    1
    15    88    87    1
    16    88    91    1
    17    84    83    2
    18    95    96    1
    19    15    16    2
    20    15    14    1
    21    13    14    1
    22    91    92    1
    23    83    82    1
    24    14    17    1
    25    68    67    2
    26    96    97    1
    27    96    99    1
    28    65    66    1
    29    17    18    1
    30    72    71    2
    31   100    99    1
    32   100   102    1
    33    67    69   am
    34    67    66    1
    35    70    69    1
    36    70    71    1
    37    70    73    1
    38    46    45    1
    39    60    59    2
    40    54    53    2
    41    82    85    1
    42    82    81    1
    43    97    98    2
    44    85    86    1
    45    59    58    1
    46    92    93    1
    47    92    94    1
    48    20    18   am
    49    99   101    1
    50    71    77   am
    51    45    42    1
    52    73    74    1
    53    18    19    2
    54    56    55    1
    55    81    79   am
    56    55    52    1
    57    80    79    2
    58    53    52    1
    59    53    57   am
    60    79    78    1
    61    58    57    1
    62    58    61    1
    63    44    43    2
    64    42    43    1
    65    42    41    1
    66    77    78    1
    67    52    51    1
    68    21    22    1
    69    74    76   ar
    70    74    75   ar
    71    51    49   am
    72    61    62    1
    73    61    63    1
    74    41    36   am
    75   103   104    1
    76    62    64    1
    77    28    27    2
    78    47    48    1
    79    24    23    2
    80    22    23    1
    81    22    25    1
    82    49    48    1
    83    49    50    2
    84    26    25    1
    85    26    27    1
    86    23    30   am
    87    36    37    2
    88    36    35    1
    89    39    38    1
    90    27    29   am
    91   104   107    1
    92   104   105    1
    93   109   108    2
    94    30    31    1
    95   108   107    1
    96   108   110   am
    97   105   106    2
    98    33    32    2
    99   126   125    1
   100    35    38    1
   101    35    34    1
   102   123   125   ar
   103   123   121   ar
   104    38    40    1
   105    32    34   am
   106    32    31    1
   107   111   112    1
   108   114   113    2
   109   125   124   ar
   110   121   120   ar
   111   112   113    1
   112   113   115   am
   113   124   122   ar
   114   120   122   ar
   115   120   119    1
   116   115   116    1
   117   116   119    1
   118   116   117    1
   119   139   138    1
   120   127   117   am
   121   127   128    1
   122   132   131    1
   123   131   128    1
   124   131   133    1
   125   117   118    2
   126   138   140    1
   127   138   135    1
   128   134   135    1
   129   134   129   am
   130   128   129    1
   131   135   136    1
   132   129   130    2
   133   146   147    1
   134   146   145    1
   135   141   136   am
   136   141   142    1
   137   147   149   ar
   138   147   148   ar
   139   136   137    2
   140   145   142    1
   141   168   166   ar
   142   168   167   ar
   143   142   143    1
   144   166   164   ar
   145   167   165   ar
   146   143   144    2
   147   164   163   ar
   148   157   155    1
   149   165   163   ar
   150   163   162    1
   151   155   154    1
   152   154   151    1
   153   154   156    1
   154   150   151    1
   155   162   159    1
   156   151   152    1
   157   159   158    1
   158   159   160    1
   159   152   153    2
   160   160   161    2
