@<TRIPOS>MOLECULE
tmp/2vbiB01.pdb
 153 147 0 0 0
SMALL
GASTEIGER

@<TRIPOS>ATOM
      1  N        -38.4140   -8.2860   -2.7020 N.3    81  ASN81      -0.1240
      2  CA       -38.7800   -7.4760   -1.5540 C.3    81  ASN81       0.1653
      3  C        -37.6870   -7.5890   -0.5110 C.2    81  ASN81       0.2266
      4  O        -37.1810   -6.5830   -0.0250 O.2    81  ASN81      -0.2867
      5  CB       -40.1120   -7.9480   -0.9810 C.3    81  ASN81       0.1155
      6  CG       -40.7910   -6.8940   -0.1420 C.2    81  ASN81       0.2627
      7  OD1      -40.1490   -6.1240    0.5750 O.2    81  ASN81      -0.2716
      8  ND2      -42.1070   -6.8580   -0.2210 N.am   81  ASN81      -0.0877
      9  N        -37.2520    9.1100    9.3710 N.3   289  TYR289     -0.1241
     10  CA       -37.5070    8.4390   10.6480 C.3   289  TYR289      0.1605
     11  C        -36.4260    8.7720   11.6800 C.2   289  TYR289      0.2264
     12  O        -36.7390    9.1720   12.8000 O.2   289  TYR289     -0.2867
     13  CB       -37.6290    6.9280   10.4510 C.3   289  TYR289      0.0534
     14  CG       -39.0090    6.4440   10.0310 C.ar  289  TYR289     -0.0201
     15  CD1      -40.0170    7.3450    9.6660 C.ar  289  TYR289     -0.0009
     16  CD2      -39.2990    5.0760    9.9740 C.ar  289  TYR289     -0.0009
     17  CE1      -41.2700    6.8970    9.2800 C.ar  289  TYR289      0.0417
     18  CE2      -40.5550    4.6260    9.5860 C.ar  289  TYR289      0.0417
     19  CZ       -41.5300    5.5440    9.2460 C.ar  289  TYR289      0.1957
     20  OH       -42.7710    5.1140    8.8490 O.3   289  TYR289     -0.2866
     21  N        -40.6830   -3.7870   13.5850 N.3   383  THR383     -0.1203
     22  CA       -41.3090   -2.5010   13.3510 C.3   383  THR383      0.1994
     23  C        -42.6550   -2.4450   14.0930 C.2   383  THR383      0.2618
     24  O        -43.4420   -3.4000   14.0640 O.2   383  THR383     -0.2717
     25  CB       -41.5130   -2.2740   11.8500 C.3   383  THR383      0.1784
     26  OG1      -40.2550   -2.4140   11.1770 O.3   383  THR383     -0.2211
     27  CG2      -42.0820   -0.8900   11.5580 C.3   383  THR383      0.0376
     28  N        -42.9030   -1.3190   14.7580 N.am  384  GLY384     -0.1942
     29  CA       -44.0590   -1.1590   15.6180 C.3   384  GLY384      0.2014
     30  C        -43.5380   -0.6770   16.9490 C.2   384  GLY384      0.2639
     31  O        -42.3890   -0.2230   17.0250 O.2   384  GLY384     -0.2714
     32  N        -44.3520   -0.7940   18.0010 N.am  385  ASP385     -0.1957
     33  CA       -43.9470   -0.3120   19.3250 C.3   385  ASP385      0.1840
     34  C        -42.7230   -1.0530   19.8650 C.2   385  ASP385      0.2622
     35  O        -42.0580   -0.5720   20.7840 O.2   385  ASP385     -0.2715
     36  CB       -45.1130   -0.3740   20.3260 C.3   385  ASP385      0.1450
     37  CG       -44.9080    0.5470   21.5420 C.2   385  ASP385      0.3671
     38  OD1      -44.2010    1.5720   21.4250 O.co2 385  ASP385     -0.2456
     39  OD2      -45.4640    0.2490   22.6210 O.co2 385  ASP385     -0.2456
     40  N        -42.4230   -2.2140   19.2860 N.am  386  SER386     -0.1950
     41  CA       -41.2370   -2.9740   19.6710 C.3   386  SER386      0.1924
     42  C        -39.9270   -2.2230   19.3910 C.2   386  SER386      0.2314
     43  O        -38.9420   -2.4110   20.1080 O.2   386  SER386     -0.2863
     44  CB       -41.2300   -4.3400   18.9980 C.3   386  SER386      0.2116
     45  OG       -42.4050   -5.0550   19.3230 O.3   386  SER386     -0.2180
     46  N        -38.0760   -1.4430    7.1130 N.3   408  GLY408     -0.1210
     47  CA       -39.2810   -1.4010    7.9480 C.3   408  GLY408      0.1956
     48  C        -40.4540   -2.2110    7.4320 C.2   408  GLY408      0.2612
     49  O        -41.5930   -1.7590    7.4740 O.2   408  GLY408     -0.2717
     50  N        -40.1650   -3.4150    6.9490 N.am  409  HIS409     -0.1961
     51  CA       -41.1740   -4.3380    6.4470 C.3   409  HIS409      0.1787
     52  C        -41.7020   -5.1510    7.6150 C.2   409  HIS409      0.2620
     53  O        -40.9990   -6.0310    8.1170 O.2   409  HIS409     -0.2715
     54  CB       -40.5320   -5.2770    5.4180 C.3   409  HIS409      0.0785
     55  CG       -41.4960   -6.1960    4.7240 C.ar  409  HIS409      0.0821
     56  ND1      -42.1750   -7.2030    5.3770 N.ar  409  HIS409     -0.2267
     57  CD2      -41.8680   -6.2770    3.4240 C.ar  409  HIS409      0.1154
     58  CE1      -42.9390   -7.8510    4.5160 C.ar  409  HIS409      0.1986
     59  NE2      -42.7680   -7.3130    3.3230 N.ar  409  HIS409     -0.2212
     60  N        -42.9250   -4.8670    8.0620 N.am  410  ILE410     -0.1977
     61  CA       -43.5150   -5.6520    9.1600 C.3   410  ILE410      0.1596
     62  C        -43.5650   -7.1320    8.7880 C.2   410  ILE410      0.2287
     63  O        -43.7810   -7.4890    7.6280 O.2   410  ILE410     -0.2864
     64  CB       -44.9110   -5.1420    9.5970 C.3   410  ILE410      0.0276
     65  CG1      -45.9330   -5.2680    8.4640 C.3   410  ILE410      0.0022
     66  CG2      -44.8170   -3.7060   10.0920 C.3   410  ILE410      0.0022
     67  CD1      -47.3600   -5.0970    8.9110 C.3   410  ILE410      0.0001
     68  N        -45.0470   -7.6340   17.1100 N.3   434  GLY434     -0.1210
     69  CA       -46.4390   -7.2560   17.2970 C.3   434  GLY434      0.1956
     70  C        -47.3790   -8.2450   16.6450 C.2   434  GLY434      0.2612
     71  O        -46.9670   -9.0480   15.8100 O.2   434  GLY434     -0.2717
     72  N        -48.6460   -8.1870   17.0310 N.am  435  ASP435     -0.1959
     73  CA       -49.6330   -9.1160   16.5060 C.3   435  ASP435      0.1840
     74  C        -49.8680   -8.9040   15.0180 C.2   435  ASP435      0.2623
     75  O        -49.9950   -9.8670   14.2620 O.2   435  ASP435     -0.2715
     76  CB       -50.9440   -9.0680   17.3140 C.3   435  ASP435      0.1450
     77  CG       -51.5710   -7.6800   17.3770 C.2   435  ASP435      0.3671
     78  OD1      -50.8470   -6.6640   17.3560 O.co2 435  ASP435     -0.2456
     79  OD2      -52.8110   -7.6170   17.4730 O.co2 435  ASP435     -0.2456
     80  N        -49.8890   -7.6420   14.6020 N.am  436  GLY436     -0.1940
     81  CA       -50.1070   -7.2910   13.2060 C.3   436  GLY436      0.2014
     82  C        -49.0030   -7.8090   12.3100 C.2   436  GLY436      0.2639
     83  O        -49.2690   -8.3730   11.2430 O.2   436  GLY436     -0.2714
     84  N        -47.7630   -7.6160   12.7580 N.am  437  SER437     -0.1949
     85  CA       -46.5880   -8.0360   12.0100 C.3   437  SER437      0.1924
     86  C        -46.5210   -9.5460   11.8950 C.2   437  SER437      0.2314
     87  O        -46.1840  -10.0780   10.8440 O.2   437  SER437     -0.2863
     88  CB       -45.3150   -7.5260   12.6770 C.3   437  SER437      0.2116
     89  OG       -45.3130   -6.1200   12.7660 O.3   437  SER437     -0.2180
     90  N        -48.1880  -11.5560    8.9160 N.3   440  LEU440     -0.1245
     91  CA       -47.6030  -11.5560    7.5800 C.3   440  LEU440      0.1561
     92  C        -46.7250  -12.7660    7.3050 C.2   440  LEU440      0.2260
     93  O        -46.7100  -13.2680    6.1890 O.2   440  LEU440     -0.2867
     94  CB       -46.7850  -10.2850    7.3410 C.3   440  LEU440      0.0270
     95  CG       -47.5550   -9.0350    6.9210 C.3   440  LEU440      0.0019
     96  CD1      -48.0810   -8.3000    8.1390 C.3   440  LEU440      0.0001
     97  CD2      -46.6750   -8.1360    6.0880 C.3   440  LEU440      0.0001
     98  N        -46.5100   -9.5210   21.0760 N.3   460  ILE460     -0.1245
     99  CA       -47.2210   -8.4480   21.7630 C.3   460  ILE460      0.1561
    100  C        -48.6010   -8.2920   21.1560 C.2   460  ILE460      0.2260
    101  O        -48.7820   -7.5930   20.1690 O.2   460  ILE460     -0.2867
    102  CB       -46.4520   -7.0940   21.7210 C.3   460  ILE460      0.0252
    103  CG1      -44.9350   -7.2830   21.9180 C.3   460  ILE460      0.0019
    104  CG2      -47.0420   -6.1060   22.7270 C.3   460  ILE460      0.0019
    105  CD1      -44.5060   -7.8310   23.2840 C.3   460  ILE460      0.0001
    106  N        -51.7080   -6.5870   21.2100 N.3   462  ASN462     -0.1240
    107  CA       -52.4680   -5.4170   21.6390 C.3   462  ASN462      0.1653
    108  C        -53.6650   -5.1260   20.7360 C.2   462  ASN462      0.2266
    109  O        -54.2570   -4.0450   20.8040 O.2   462  ASN462     -0.2867
    110  CB       -51.5670   -4.1820   21.7940 C.3   462  ASN462      0.1155
    111  CG       -50.7500   -3.8880   20.5600 C.2   462  ASN462      0.2627
    112  OD1      -51.0470   -4.3650   19.4590 O.2   462  ASN462     -0.2716
    113  ND2      -49.7080   -3.0830   20.7340 N.am  462  ASN462     -0.0877
    114  N        -54.1050   -4.9420   17.2500 N.3   464  GLY464     -0.1210
    115  CA       -54.0540   -4.1000   16.0610 C.3   464  GLY464      0.1956
    116  C        -52.7520   -3.3780   15.8100 C.2   464  GLY464      0.2612
    117  O        -51.7620   -3.5740   16.5220 O.2   464  GLY464     -0.2717
    118  N        -52.7650   -2.5490   14.7690 N.am  465  TYR465     -0.1962
    119  CA       -51.6190   -1.7290   14.3850 C.3   465  TYR465      0.1771
    120  C        -51.5610   -0.4910   15.2820 C.2   465  TYR465      0.2619
    121  O        -51.9570    0.6040   14.8710 O.2   465  TYR465     -0.2715
    122  CB       -51.7430   -1.2850   12.9240 C.3   465  TYR465      0.0574
    123  CG       -51.8620   -2.3830   11.8810 C.ar  465  TYR465     -0.0198
    124  CD1      -51.3140   -3.6540   12.0850 C.ar  465  TYR465     -0.0009
    125  CD2      -52.4880   -2.1280   10.6530 C.ar  465  TYR465     -0.0009
    126  CE1      -51.4220   -4.6470   11.1050 C.ar  465  TYR465      0.0417
    127  CE2      -52.5920   -3.1140    9.6670 C.ar  465  TYR465      0.0417
    128  CZ       -52.0620   -4.3650    9.9050 C.ar  465  TYR465      0.1957
    129  OH       -52.1640   -5.3300    8.9380 O.3   465  TYR465     -0.2866
    130  N        -51.0750   -0.6690   16.5070 N.am  466  VAL466     -0.1963
    131  CA       -51.1070    0.3940   17.5120 C.3   466  VAL466      0.1727
    132  C        -50.2400    1.5990   17.1420 C.2   466  VAL466      0.2616
    133  O        -50.6720    2.7470   17.3190 O.2   466  VAL466     -0.2715
    134  CB       -50.7890   -0.1530   18.9240 C.3   466  VAL466      0.0290
    135  CG1      -50.4430    0.9670   19.9000 C.3   466  VAL466      0.0023
    136  CG2      -51.9780   -0.9490   19.4310 C.3   466  VAL466      0.0023
    137  N        -49.0440    1.3460   16.6080 N.am  467  ILE467     -0.1963
    138  CA       -48.1760    2.4240   16.1160 C.3   467  ILE467      0.1727
    139  C        -48.9350    3.3580   15.1700 C.2   467  ILE467      0.2616
    140  O        -48.5870    4.5360   15.0290 O.2   467  ILE467     -0.2715
    141  CB       -46.9140    1.8740   15.4030 C.3   467  ILE467      0.0290
    142  CG1      -45.9510    3.0150   15.0340 C.3   467  ILE467      0.0022
    143  CG2      -47.3050    1.0670   14.1740 C.3   467  ILE467      0.0023
    144  CD1      -44.5270    2.5660   14.7220 C.3   467  ILE467      0.0001
    145  N        -49.9820    2.8260   14.5450 N.am  468  GLU468     -0.1977
    146  CA       -50.7750    3.5700   13.5880 C.3   468  GLU468      0.1602
    147  C        -52.0210    4.1450   14.2490 C.2   468  GLU468      0.2287
    148  O        -52.4140    5.2780   13.9650 O.2   468  GLU468     -0.2864
    149  CB       -51.1420    2.6620   12.4270 C.3   468  GLU468      0.0415
    150  CG       -50.9560    3.3000   11.0780 C.3   468  GLU468      0.1163
    151  CD       -49.4820    3.5970   10.7390 C.2   468  GLU468      0.3649
    152  OE1      -49.0720    4.7840   10.8800 O.co2 468  GLU468     -0.2457
    153  OE2      -48.7510    2.6530   10.3240 O.co2 468  GLU468     -0.2457
@<TRIPOS>BOND
     1     1     2    1
     2     2     5    1
     3     2     3    1
     4     5     6    1
     5     3     4    2
     6     8     6   am
     7     6     7    2
     8    59    57   ar
     9    59    58   ar
    10    57    55   ar
    11    58    56   ar
    12    55    56   ar
    13    55    54    1
    14    54    51    1
    15    97    95    1
    16    93    92    2
    17    51    50    1
    18    51    52    1
    19    95    94    1
    20    95    96    1
    21    50    48   am
    22    46    47    1
    23    92    91    1
    24    94    91    1
    25    48    49    2
    26    48    47    1
    27    91    90    1
    28    52    60   am
    29    52    53    2
    30    63    62    2
    31    60    61    1
    32    65    67    1
    33    65    64    1
    34    62    61    1
    35    20    19    1
    36   129   128    1
    37    61    64    1
    38    19    17   ar
    39    19    18   ar
    40    17    15   ar
    41     9    10    1
    42    18    16   ar
    43    64    66    1
    44    15    14   ar
    45   127   128   ar
    46   127   125   ar
    47   128   126   ar
    48    16    14   ar
    49    14    13    1
    50   153   151   ar
    51    13    10    1
    52    10    11    1
    53   125   123   ar
    54   151   152   ar
    55   151   150    1
    56    87    86    2
    57   150   149    1
    58   126   124   ar
    59    26    25    1
    60    83    82    2
    61    27    25    1
    62    11    12    2
    63    25    22    1
    64   123   124   ar
    65   123   122    1
    66    86    85    1
    67    85    88    1
    68    85    84    1
    69    82    84   am
    70    82    81    1
    71   149   146    1
    72    88    89    1
    73   122   119    1
    74    81    80    1
    75    22    21    1
    76    22    23    1
    77   146   147    1
    78   146   145    1
    79   148   147    2
    80    24    23    2
    81    23    28   am
    82   143   141    1
    83    75    74    2
    84   119   118    1
    85   119   120    1
    86   145   139   am
    87    80    74   am
    88   144   142    1
    89    28    29    1
    90   118   116   am
    91   121   120    2
    92    74    73    1
    93   140   139    2
    94   142   141    1
    95   139   138    1
    96   120   130   am
    97   141   138    1
    98    29    30    1
    99   116   115    1
   100   116   117    2
   101    71    70    2
   102   115   114    1
   103   138   137    1
   104    73    72    1
   105    73    76    1
   106   130   131    1
   107   137   132   am
   108    70    72   am
   109    70    69    1
   110    30    31    2
   111    30    32   am
   112    68    69    1
   113   132   133    2
   114   132   131    1
   115    76    77    1
   116    78    77   ar
   117    77    79   ar
   118   131   134    1
   119    32    33    1
   120   134   136    1
   121   134   135    1
   122    44    45    1
   123    44    41    1
   124    40    41    1
   125    40    34   am
   126    33    34    1
   127    33    36    1
   128    42    41    1
   129    42    43    2
   130   112   111    2
   131    34    35    2
   132   101   100    2
   133    36    37    1
   134   111   113   am
   135   111   110    1
   136   108   109    2
   137   108   107    1
   138    98    99    1
   139   100    99    1
   140   106   107    1
   141    38    37   ar
   142    37    39   ar
   143   107   110    1
   144   102    99    1
   145   102   103    1
   146   102   104    1
   147   103   105    1
