@<TRIPOS>MOLECULE
tmp/2vbuA02.pdb
 114 111 0 0 0
SMALL
GASTEIGER

@<TRIPOS>ATOM
      1  N         -5.6170    1.3430   -2.9330 N.3    16  GLU16      -0.1231
      2  CA        -5.1650    0.0620   -2.4170 C.3    16  GLU16       0.1699
      3  C         -5.2700   -1.0290   -3.4530 C.2    16  GLU16       0.2592
      4  O         -4.4420   -1.9170   -3.5110 O.2    16  GLU16      -0.2718
      5  CB        -5.9860   -0.3340   -1.1960 C.3    16  GLU16       0.0402
      6  CG        -5.9610    0.6770   -0.0610 C.3    16  GLU16       0.1161
      7  CD        -7.1690    1.5950   -0.0220 C.2    16  GLU16       0.3649
      8  OE1       -7.7020    1.9700   -1.0820 O.co2  16  GLU16      -0.2457
      9  OE2       -7.5960    1.9700    1.1170 O.co2  16  GLU16      -0.2457
     10  N         -6.2930   -0.9760   -4.2870 N.am   17  GLY17      -0.1957
     11  CA        -6.5040   -2.0420   -5.2520 C.3    17  GLY17       0.1869
     12  C         -5.3190   -2.2260   -6.1870 C.2    17  GLY17       0.2309
     13  O         -4.8990   -3.3390   -6.4420 O.2    17  GLY17      -0.2863
     14  N         -2.2970   -4.1490   -4.3840 N.3    20  PHE20      -0.1227
     15  CA        -2.4300   -5.5850   -4.2960 C.3    20  PHE20       0.1736
     16  C         -2.4400   -6.2600   -5.6490 C.2    20  PHE20       0.2595
     17  O         -1.7410   -7.2620   -5.8630 O.2    20  PHE20      -0.2718
     18  CB        -3.6730   -5.9650   -3.4920 C.3    20  PHE20       0.0547
     19  CG        -3.5760   -5.5780   -2.0520 C.ar   20  PHE20      -0.0202
     20  CD1       -2.7440   -6.2690   -1.1750 C.ar   20  PHE20      -0.0042
     21  CD2       -4.3020   -4.5310   -1.5690 C.ar   20  PHE20      -0.0042
     22  CE1       -2.6380   -5.8880    0.1350 C.ar   20  PHE20      -0.0003
     23  CE2       -4.2060   -4.1450   -0.2550 C.ar   20  PHE20      -0.0003
     24  CZ        -3.3850   -4.8260    0.6050 C.ar   20  PHE20      -0.0000
     25  N         -3.2060   -5.7190   -6.5810 N.am   21  LEU21      -0.1980
     26  CA        -3.3590   -6.4130   -7.8570 C.3    21  LEU21       0.1596
     27  C         -2.0860   -6.3550   -8.7150 C.2    21  LEU21       0.2287
     28  O         -1.9790   -7.0580   -9.7030 O.2    21  LEU21      -0.2864
     29  CB        -4.5560   -5.8640   -8.6420 C.3    21  LEU21       0.0297
     30  CG        -5.9450   -6.4500   -8.3510 C.3    21  LEU21       0.0022
     31  CD1       -6.1570   -7.7190   -9.1370 C.3    21  LEU21       0.0001
     32  CD2       -6.1540   -6.7020   -6.8730 C.3    21  LEU21       0.0001
     33  N         -0.8000  -12.2010   -6.4660 N.3    26  TYR26      -0.1241
     34  CA        -2.2150  -11.9020   -6.6690 C.3    26  TYR26       0.1605
     35  C         -2.5680  -11.9200   -8.1480 C.2    26  TYR26       0.2264
     36  O         -3.6000  -12.4730   -8.5240 O.2    26  TYR26      -0.2867
     37  CB        -2.6010  -10.5800   -6.0450 C.3    26  TYR26       0.0534
     38  CG        -2.6830  -10.6160   -4.5240 C.ar   26  TYR26      -0.0201
     39  CD1       -3.5930  -11.4350   -3.8570 C.ar   26  TYR26      -0.0009
     40  CD2       -1.8630   -9.8110   -3.7580 C.ar   26  TYR26      -0.0009
     41  CE1       -3.6780  -11.4510   -2.4730 C.ar   26  TYR26       0.0417
     42  CE2       -1.9260   -9.8270   -2.3760 C.ar   26  TYR26       0.0417
     43  CZ        -2.8390  -10.6420   -1.7330 C.ar   26  TYR26       0.1957
     44  OH        -2.9010  -10.6390   -0.3550 O.3    26  TYR26      -0.2866
     45  N         -5.5530  -14.4250   -9.6860 N.3    30  PHE30      -0.1241
     46  CA        -6.6990  -13.9800  -10.4480 C.3    30  PHE30       0.1605
     47  C         -6.6670  -14.5210  -11.8700 C.2    30  PHE30       0.2264
     48  O         -7.6980  -14.9240  -12.3820 O.2    30  PHE30      -0.2867
     49  CB        -6.8260  -12.4520  -10.4170 C.3    30  PHE30       0.0534
     50  CG        -7.0160  -11.9060   -9.0420 C.ar   30  PHE30      -0.0203
     51  CD1       -8.0110  -12.3980   -8.2190 C.ar   30  PHE30      -0.0042
     52  CD2       -6.1960  -10.9080   -8.5510 C.ar   30  PHE30      -0.0042
     53  CE1       -8.1860  -11.9120   -6.9430 C.ar   30  PHE30      -0.0003
     54  CE2       -6.3820  -10.4090   -7.2700 C.ar   30  PHE30      -0.0003
     55  CZ        -7.3680  -10.9260   -6.4660 C.ar   30  PHE30      -0.0000
     56  N         -8.9190   -1.8870   -8.3290 N.3    42  THR42      -0.1218
     57  CA       -10.2780   -2.3170   -8.0160 C.3    42  THR42       0.1862
     58  C        -11.2290   -1.1580   -8.1860 C.2    42  THR42       0.2287
     59  O        -11.0270   -0.0810   -7.6030 O.2    42  THR42      -0.2866
     60  CB       -10.4090   -2.8280   -6.5550 C.3    42  THR42       0.1770
     61  OG1       -9.9950   -1.8010   -5.6250 O.3    42  THR42      -0.2211
     62  CG2       -9.6100   -4.1240   -6.3230 C.3    42  THR42       0.0375
     63  N         -2.5060  -11.8540    2.7880 N.3    72  PHE72      -0.1227
     64  CA        -3.7920  -12.5080    2.9960 C.3    72  PHE72       0.1736
     65  C         -4.3360  -13.1380    1.7160 C.2    72  PHE72       0.2596
     66  O         -4.1700  -12.6140    0.6080 O.2    72  PHE72      -0.2718
     67  CB        -4.8170  -11.4980    3.5280 C.3    72  PHE72       0.0547
     68  CG        -4.4190  -10.8150    4.8220 C.ar   72  PHE72      -0.0202
     69  CD1       -3.6000  -11.4490    5.7620 C.ar   72  PHE72      -0.0042
     70  CD2       -4.9030   -9.5390    5.1100 C.ar   72  PHE72      -0.0042
     71  CE1       -3.2570  -10.8100    6.9520 C.ar   72  PHE72      -0.0003
     72  CE2       -4.5660   -8.8930    6.3020 C.ar   72  PHE72      -0.0003
     73  CZ        -3.7420   -9.5300    7.2250 C.ar   72  PHE72      -0.0000
     74  N         -4.9670  -14.2960    1.8690 N.am   73  GLY73      -0.1942
     75  CA        -5.7200  -14.9120    0.7900 C.3    73  GLY73       0.2014
     76  C         -6.9100  -14.0350    0.4630 C.2    73  GLY73       0.2638
     77  O         -7.1930  -13.0720    1.1780 O.2    73  GLY73      -0.2714
     78  N         -7.6090  -14.3880   -0.6070 N.am   74  VAL74      -0.1977
     79  CA        -8.7190  -13.5990   -1.0780 C.3    74  VAL74       0.1596
     80  C         -9.8930  -14.4970   -1.3980 C.2    74  VAL74       0.2287
     81  O         -9.7230  -15.6570   -1.7660 O.2    74  VAL74      -0.2864
     82  CB        -8.3440  -12.7560   -2.3060 C.3    74  VAL74       0.0276
     83  CG1       -7.3710  -11.6700   -1.8950 C.3    74  VAL74       0.0022
     84  CG2       -7.7630  -13.6160   -3.4210 C.3    74  VAL74       0.0022
     85  N        -13.9040   -9.0310   -5.1740 N.3    93  VAL93      -0.1231
     86  CA       -12.8250   -9.5580   -4.3670 C.3    93  VAL93       0.1692
     87  C        -12.9370   -8.9870   -2.9450 C.2    93  VAL93       0.2592
     88  O        -13.2040   -7.8020   -2.7570 O.2    93  VAL93      -0.2718
     89  CB       -11.4380   -9.2770   -5.0130 C.3    93  VAL93       0.0266
     90  CG1      -11.3010  -10.0260   -6.3670 C.3    93  VAL93       0.0020
     91  CG2      -11.2150   -7.7950   -5.2150 C.3    93  VAL93       0.0020
     92  N        -12.7480   -9.8610   -1.9620 N.am   94  VAL94      -0.1966
     93  CA       -12.7760   -9.5250   -0.5580 C.3    94  VAL94       0.1712
     94  C        -11.6190  -10.2630    0.1400 C.2    94  VAL94       0.2458
     95  O        -11.2700  -11.3840   -0.2280 O.2    94  VAL94      -0.2730
     96  CB       -14.1270  -10.0010    0.0520 C.3    94  VAL94       0.0289
     97  CG1      -14.1300   -9.8990    1.5640 C.3    94  VAL94       0.0023
     98  CG2      -15.3070   -9.2270   -0.5610 C.3    94  VAL94       0.0023
     99  N        -10.9770   -9.6290    1.1320 N.am   95  PRO95      -0.2727
    100  CA        -9.9600  -10.3850    1.8650 C.3    95  PRO95       0.1402
    101  C        -10.5280  -11.6380    2.4920 C.2    95  PRO95       0.2269
    102  O        -11.6910  -11.6580    2.8880 O.2    95  PRO95      -0.2865
    103  CB        -9.5060   -9.4090    2.9550 C.3    95  PRO95       0.0296
    104  CG        -9.8770   -8.0870    2.4530 C.3    95  PRO95       0.0237
    105  CD       -11.0950   -8.2400    1.6070 C.3    95  PRO95       0.0939
    106  N        -15.2330   -4.2420   -3.9540 N.3   106  GLU106     -0.1245
    107  CA       -14.1430   -4.0200   -4.8980 C.3   106  GLU106      0.1567
    108  C        -14.3050   -4.9710   -6.0780 C.2   106  GLU106      0.2260
    109  O        -14.3670   -6.1830   -5.9060 O.2   106  GLU106     -0.2867
    110  CB       -12.7960   -4.2500   -4.2240 C.3   106  GLU106      0.0388
    111  CG       -12.3810   -3.1060   -3.3480 C.3   106  GLU106      0.1160
    112  CD       -11.0060   -3.3220   -2.7640 C.2   106  GLU106      0.3649
    113  OE1      -10.9020   -4.1270   -1.8110 O.co2 106  GLU106     -0.2457
    114  OE2      -10.0270   -2.7200   -3.2590 O.co2 106  GLU106     -0.2457
@<TRIPOS>BOND
     1    48    47    2
     2    47    46    1
     3    46    49    1
     4    46    45    1
     5    49    50    1
     6    28    27    2
     7    31    30    1
     8    50    52   ar
     9    50    51   ar
    10    27    26    1
    11    29    30    1
    12    29    26    1
    13    52    54   ar
    14    36    35    2
    15    30    32    1
    16    56    57    1
    17    51    53   ar
    18    58    57    1
    19    58    59    2
    20    35    34    1
    21    57    60    1
    22    26    25    1
    23    54    55   ar
    24    53    55   ar
    25    34    33    1
    26    34    37    1
    27    25    16   am
    28    60    62    1
    29    60    61    1
    30    13    12    2
    31    90    89    1
    32    12    11    1
    33   108   109    2
    34   108   107    1
    35    37    38    1
    36    17    16    2
    37    16    15    1
    38    11    10    1
    39    91    89    1
    40    85    86    1
    41    89    86    1
    42   107   110    1
    43   107   106    1
    44    38    39   ar
    45    38    40   ar
    46    14    15    1
    47    86    87    1
    48    15    18    1
    49    10     3   am
    50   110   111    1
    51    39    41   ar
    52    40    42   ar
    53     4     3    2
    54    18    19    1
    55     3     2    1
    56    84    82    1
    57   111   112    1
    58   114   112   ar
    59    87    88    2
    60    87    92   am
    61     1     2    1
    62   112   113   ar
    63    41    43   ar
    64     2     5    1
    65    42    43   ar
    66    82    83    1
    67    82    79    1
    68    19    21   ar
    69    19    20   ar
    70    92    93    1
    71    81    80    2
    72    43    44    1
    73    21    23   ar
    74    80    79    1
    75     5     6    1
    76    20    22   ar
    77     8     7   ar
    78    79    78    1
    79    78    76   am
    80    98    96    1
    81    93    96    1
    82    93    94    1
    83    23    24   ar
    84    95    94    2
    85     6     7    1
    86     7     9   ar
    87    96    97    1
    88    22    24   ar
    89    94    99   am
    90    76    75    1
    91    76    77    2
    92    66    65    2
    93    75    74    1
    94    99   105    1
    95    99   100    1
    96   105   104    1
    97    65    74   am
    98    65    64    1
    99   100   101    1
   100   100   103    1
   101   104   103    1
   102   101   102    2
   103    63    64    1
   104    64    67    1
   105    67    68    1
   106    68    70   ar
   107    68    69   ar
   108    70    72   ar
   109    69    71   ar
   110    72    73   ar
   111    71    73   ar
