@<TRIPOS>MOLECULE
tmp/2vbvA01.pdb
 187 183 0 0 0
SMALL
GASTEIGER

@<TRIPOS>ATOM
      1  N        -19.0100  -10.4880    7.3470 N.3    14  GLY14      -0.1210
      2  CA       -19.4210  -11.7850    6.8220 C.3    14  GLY14       0.1956
      3  C        -18.7080  -12.9960    7.4200 C.2    14  GLY14       0.2612
      4  O        -18.2250  -12.9860    8.5590 O.2    14  GLY14      -0.2717
      5  N        -18.5870  -14.0420    6.6240 N.am   15  LEU15      -0.1965
      6  CA       -18.0290  -15.3000    7.1230 C.3    15  LEU15       0.1728
      7  C        -16.4930  -15.4320    7.1270 C.2    15  LEU15       0.2617
      8  O        -15.9770  -16.5410    7.2260 O.2    15  LEU15      -0.2715
      9  CB       -18.5840  -16.4690    6.3170 C.3    15  LEU15       0.0311
     10  CG       -20.0770  -16.5860    6.1760 C.3    15  LEU15       0.0022
     11  CD1      -20.4050  -17.9750    5.6930 C.3    15  LEU15       0.0001
     12  CD2      -20.6770  -16.3540    7.4990 C.3    15  LEU15       0.0001
     13  N        -15.7720  -14.3380    7.0230 N.am   16  GLY16      -0.1940
     14  CA       -14.3130  -14.3960    7.0230 C.3    16  GLY16       0.2014
     15  C        -13.6650  -14.8320    5.7120 C.2    16  GLY16       0.2639
     16  O        -12.4670  -14.9440    5.6510 O.2    16  GLY16      -0.2714
     17  N        -14.4260  -15.0170    4.6370 N.am   17  GLU17      -0.1963
     18  CA       -13.8630  -15.6500    3.4250 C.3    17  GLU17       0.1733
     19  C        -13.0820  -14.7450    2.4250 C.2    17  GLU17       0.2616
     20  O        -12.3360  -15.2350    1.5950 O.2    17  GLU17      -0.2715
     21  CB       -14.9580  -16.4940    2.7380 C.3    17  GLU17       0.0429
     22  CG       -15.4580  -17.6210    3.6330 C.3    17  GLU17       0.1163
     23  CD       -16.2490  -18.6650    2.8960 C.2    17  GLU17       0.3649
     24  OE1      -16.7840  -18.3270    1.8210 O.co2  17  GLU17      -0.2457
     25  OE2      -16.3280  -19.8300    3.3850 O.co2  17  GLU17      -0.2457
     26  N        -13.2090  -13.4240    2.5340 N.am   18  GLY18      -0.1955
     27  CA       -12.5890  -12.5070    1.5590 C.3    18  GLY18       0.1869
     28  C        -11.1030  -12.6680    1.4900 C.2    18  GLY18       0.2309
     29  O        -10.5120  -12.6990    0.4310 O.2    18  GLY18      -0.2863
     30  N         -8.7500  -15.1850   -0.4700 N.3    21  PHE21      -0.1227
     31  CA        -8.6910  -14.9910   -1.9200 C.3    21  PHE21       0.1736
     32  C         -7.8890  -13.7760   -2.2930 C.2    21  PHE21       0.2595
     33  O         -7.2280  -13.7570   -3.3000 O.2    21  PHE21      -0.2718
     34  CB       -10.0860  -14.9510   -2.5380 C.3    21  PHE21       0.0547
     35  CG       -10.7230  -16.3160   -2.6580 C.ar   21  PHE21      -0.0202
     36  CD1      -10.2740  -17.2240   -3.6030 C.ar   21  PHE21      -0.0042
     37  CD2      -11.7800  -16.6750   -1.8450 C.ar   21  PHE21      -0.0042
     38  CE1      -10.8640  -18.5040   -3.7150 C.ar   21  PHE21      -0.0003
     39  CE2      -12.3820  -17.9020   -1.9650 C.ar   21  PHE21      -0.0003
     40  CZ       -11.9070  -18.8420   -2.8820 C.ar   21  PHE21      -0.0000
     41  N         -7.9160  -12.7490   -1.4830 N.am   22  LEU22      -0.1980
     42  CA        -7.1280  -11.5570   -1.8240 C.3    22  LEU22       0.1596
     43  C         -5.6750  -11.6760   -1.3940 C.2    22  LEU22       0.2287
     44  O         -4.8470  -10.8660   -1.8140 O.2    22  LEU22      -0.2864
     45  CB        -7.7840  -10.2930   -1.3020 C.3    22  LEU22       0.0297
     46  CG        -8.9480   -9.8930   -2.2340 C.3    22  LEU22       0.0022
     47  CD1      -10.0370   -9.2420   -1.4690 C.3    22  LEU22       0.0001
     48  CD2       -8.4590   -9.0120   -3.4000 C.3    22  LEU22       0.0001
     49  N         -4.0400  -13.4040   -7.5250 N.3    27  TYR27      -0.1241
     50  CA        -5.0380  -12.3550   -7.2800 C.3    27  TYR27       0.1605
     51  C         -4.3950  -11.0410   -6.8520 C.2    27  TYR27       0.2264
     52  O         -4.6960   -9.9900   -7.4320 O.2    27  TYR27      -0.2867
     53  CB        -6.1020  -12.8340   -6.2860 C.3    27  TYR27       0.0534
     54  CG        -7.1910  -13.6350   -6.9700 C.ar   27  TYR27      -0.0201
     55  CD1       -7.8990  -13.0950   -8.0250 C.ar   27  TYR27      -0.0009
     56  CD2       -7.4850  -14.9270   -6.5850 C.ar   27  TYR27      -0.0009
     57  CE1       -8.8280  -13.8150   -8.6690 C.ar   27  TYR27       0.0417
     58  CE2       -8.4520  -15.6600   -7.2260 C.ar   27  TYR27       0.0417
     59  CZ        -9.1130  -15.0990   -8.2620 C.ar   27  TYR27       0.1957
     60  OH       -10.0890  -15.7950   -8.9140 O.3    27  TYR27      -0.2866
     61  N         -5.0040   -7.7590   -9.5900 N.3    31  PHE31      -0.1241
     62  CA        -5.6050   -6.4820   -9.1320 C.3    31  PHE31       0.1605
     63  C         -4.6430   -5.2880   -9.1550 C.2    31  PHE31       0.2264
     64  O         -5.0550   -4.1560   -9.4030 O.2    31  PHE31      -0.2867
     65  CB        -6.2410   -6.6220   -7.7520 C.3    31  PHE31       0.0534
     66  CG        -7.4440   -7.5450   -7.7270 C.ar   31  PHE31      -0.0203
     67  CD1       -8.5440   -7.2920   -8.5050 C.ar   31  PHE31      -0.0042
     68  CD2       -7.4730   -8.6530   -6.8950 C.ar   31  PHE31      -0.0042
     69  CE1       -9.6410   -8.1330   -8.4730 C.ar   31  PHE31      -0.0003
     70  CE2       -8.5950   -9.5110   -6.8650 C.ar   31  PHE31      -0.0003
     71  CZ        -9.6560   -9.2590   -7.6640 C.ar   31  PHE31      -0.0000
     72  N        -12.1660   -8.0740    1.7660 N.3    43  THR43      -0.1218
     73  CA       -13.1950   -7.3620    1.0470 C.3    43  THR43       0.1862
     74  C        -14.2120   -6.7650    2.0180 C.2    43  THR43       0.2287
     75  O        -14.8540   -7.4780    2.7990 O.2    43  THR43      -0.2866
     76  CB       -13.9920   -8.2320    0.0030 C.3    43  THR43       0.1770
     77  OG1      -14.8710   -9.1540    0.6670 O.3    43  THR43      -0.2211
     78  CG2      -13.0990   -8.9320   -0.9940 C.3    43  THR43       0.0375
     79  N        -17.5490   -5.7840    2.7570 N.3    45  ASN45      -0.1240
     80  CA       -18.8620   -6.0950    2.3320 C.3    45  ASN45       0.1653
     81  C        -19.7400   -4.9290    2.6700 C.2    45  ASN45       0.2266
     82  O        -19.6230   -4.3810    3.7660 O.2    45  ASN45      -0.2867
     83  CB       -19.4010   -7.3290    3.0730 C.3    45  ASN45       0.1155
     84  CG       -18.5750   -8.5530    2.8420 C.2    45  ASN45       0.2627
     85  OD1      -17.4130   -8.4800    2.4300 O.2    45  ASN45      -0.2716
     86  ND2      -19.1380   -9.6770    3.1500 N.am   45  ASN45      -0.0877
     87  N         -9.4870  -25.0970   -9.3300 N.3    71  ARG71      -0.1231
     88  CA        -9.9750  -24.1580  -10.3430 C.3    71  ARG71       0.1694
     89  C        -10.5280  -22.9010   -9.6210 C.2    71  ARG71       0.2592
     90  O        -11.4300  -22.9890   -8.7630 O.2    71  ARG71      -0.2718
     91  CB       -11.1040  -24.8200  -11.1560 C.3    71  ARG71       0.0321
     92  CG       -11.5650  -24.0730  -12.4070 C.3    71  ARG71       0.0489
     93  CD       -10.5000  -24.0700  -13.5320 C.3    71  ARG71       0.2205
     94  NE       -10.7290  -25.0980  -14.5680 N.pl3  71  ARG71      -0.0865
     95  CZ       -10.2260  -26.3400  -14.5630 C.cat  71  ARG71       0.5346
     96  NH1       -9.4490  -26.7710  -13.5810 N.pl3  71  ARG71       0.1354
     97  NH2      -10.5030  -27.1770  -15.5570 N.pl3  71  ARG71       0.1354
     98  N         -9.9680  -21.7500   -9.9750 N.am   72  PHE72      -0.1962
     99  CA       -10.2780  -20.4970   -9.3540 C.3    72  PHE72       0.1771
    100  C        -10.9950  -19.6330  -10.3790 C.2    72  PHE72       0.2619
    101  O        -10.3730  -19.1200  -11.2990 O.2    72  PHE72      -0.2715
    102  CB        -8.9780  -19.8350   -8.9250 C.3    72  PHE72       0.0574
    103  CG        -8.3350  -20.4710   -7.7380 C.ar   72  PHE72      -0.0200
    104  CD1       -8.6850  -20.0930   -6.4660 C.ar   72  PHE72      -0.0042
    105  CD2       -7.3800  -21.4550   -7.8940 C.ar   72  PHE72      -0.0042
    106  CE1       -8.0940  -20.6810   -5.3660 C.ar   72  PHE72      -0.0003
    107  CE2       -6.7880  -22.0510   -6.7960 C.ar   72  PHE72      -0.0003
    108  CZ        -7.1520  -21.6680   -5.5330 C.ar   72  PHE72      -0.0000
    109  N        -12.2950  -19.4390  -10.2030 N.am   73  PHE73      -0.1974
    110  CA       -13.1440  -18.7930  -11.2230 C.3    73  PHE73       0.1639
    111  C        -12.9410  -17.3140  -11.3920 C.2    73  PHE73       0.2290
    112  O        -12.4650  -16.6230  -10.4830 O.2    73  PHE73      -0.2864
    113  CB       -14.6340  -19.0450  -10.9430 C.3    73  PHE73       0.0560
    114  CG       -14.9740  -20.4930  -10.8380 C.ar   73  PHE73      -0.0200
    115  CD1      -14.9390  -21.2980  -11.9700 C.ar   73  PHE73      -0.0042
    116  CD2      -15.2400  -21.0730   -9.5940 C.ar   73  PHE73      -0.0042
    117  CE1      -15.2200  -22.6650  -11.8890 C.ar   73  PHE73      -0.0003
    118  CE2      -15.5360  -22.4480   -9.4900 C.ar   73  PHE73      -0.0003
    119  CZ       -15.5200  -23.2450  -10.6440 C.ar   73  PHE73      -0.0000
    120  N        -13.5460  -13.3540  -11.6960 N.3    75  VAL75      -0.1245
    121  CA       -14.2220  -12.3620  -10.8830 C.3    75  VAL75       0.1561
    122  C        -14.4370  -11.1490  -11.8000 C.2    75  VAL75       0.2260
    123  O        -13.6610  -10.9240  -12.7450 O.2    75  VAL75      -0.2867
    124  CB       -13.3970  -11.9530   -9.6010 C.3    75  VAL75       0.0252
    125  CG1      -13.0680  -13.1610   -8.7530 C.3    75  VAL75       0.0019
    126  CG2      -12.1430  -11.2470   -9.9450 C.3    75  VAL75       0.0019
    127  N        -15.6200   -6.2390   -6.4350 N.3    94  VAL94      -0.1245
    128  CA       -15.3780   -7.5830   -6.9550 C.3    94  VAL94       0.1561
    129  C        -16.6650   -8.4110   -6.8240 C.2    94  VAL94       0.2260
    130  O        -17.3390   -8.3890   -5.7740 O.2    94  VAL94      -0.2867
    131  CB       -14.1810   -8.3220   -6.2790 C.3    94  VAL94       0.0252
    132  CG1      -12.8840   -7.6240   -6.5950 C.3    94  VAL94       0.0019
    133  CG2      -14.3680   -8.4680   -4.7800 C.3    94  VAL94       0.0019
    134  N        -17.3540  -12.2500   -7.5420 N.3    96  PRO96      -0.2116
    135  CA       -16.8750  -13.5320   -7.9630 C.3    96  PRO96       0.1372
    136  C        -18.0000  -14.2650   -8.6630 C.2    96  PRO96       0.2244
    137  O        -19.1650  -14.0060   -8.3510 O.2    96  PRO96      -0.2868
    138  CB       -16.5360  -14.2340   -6.6420 C.3    96  PRO96       0.0268
    139  CG       -16.5930  -13.1770   -5.5910 C.3    96  PRO96       0.0207
    140  CD       -17.5160  -12.1870   -6.0860 C.3    96  PRO96       0.0892
    141  N        -18.7920  -17.4650   -8.3430 N.3    98  LYS98      -0.1231
    142  CA       -19.4250  -18.2400   -7.2730 C.3    98  LYS98       0.1693
    143  C        -19.0870  -17.6270   -5.9260 C.2    98  LYS98       0.2593
    144  O        -17.9390  -17.6280   -5.5270 O.2    98  LYS98      -0.2718
    145  CB       -18.9290  -19.6780   -7.2960 C.3    98  LYS98       0.0285
    146  CG       -19.9530  -20.6640   -6.6490 C.3    98  LYS98       0.0035
    147  CD       -19.3270  -21.9870   -6.1740 C.3    98  LYS98       0.0206
    148  CE       -20.3470  -22.7730   -5.3410 C.3    98  LYS98       0.1093
    149  NZ       -20.4850  -24.2130   -5.8040 N.3    98  LYS98      -0.1314
    150  N        -20.0860  -17.0830   -5.2490 N.am   99  THR99      -0.1939
    151  CA       -19.9490  -16.4860   -3.9350 C.3    99  THR99       0.2028
    152  C        -21.0570  -17.0750   -3.0930 C.2    99  THR99       0.2642
    153  O        -22.0540  -17.5130   -3.6410 O.2    99  THR99      -0.2714
    154  CB       -20.1310  -14.9770   -4.0150 C.3    99  THR99       0.1808
    155  OG1      -20.1550  -14.4040   -2.7040 O.3    99  THR99      -0.2208
    156  CG2      -21.4280  -14.6170   -4.7390 C.3    99  THR99       0.0379
    157  N        -20.9160  -17.0790   -1.7700 N.am  100  TYR100     -0.1959
    158  CA       -21.9400  -17.7020   -0.9110 C.3   100  TYR100      0.1771
    159  C        -23.0720  -16.7530   -0.6910 C.2   100  TYR100      0.2619
    160  O        -24.1320  -17.1460   -0.2050 O.2   100  TYR100     -0.2715
    161  CB       -21.3890  -18.1110    0.4740 C.3   100  TYR100      0.0574
    162  CG       -21.0830  -16.9410    1.3740 C.ar  100  TYR100     -0.0198
    163  CD1      -22.0760  -16.3560    2.1370 C.ar  100  TYR100     -0.0009
    164  CD2      -19.7960  -16.4530    1.4770 C.ar  100  TYR100     -0.0009
    165  CE1      -21.8110  -15.2830    2.9180 C.ar  100  TYR100      0.0417
    166  CE2      -19.5290  -15.4260    2.2670 C.ar  100  TYR100      0.0417
    167  CZ       -20.5430  -14.8160    2.9810 C.ar  100  TYR100      0.1957
    168  OH       -20.2650  -13.7460    3.7890 O.3   100  TYR100     -0.2866
    169  N        -22.8590  -15.4910   -1.0420 N.am  101  HIS101     -0.1973
    170  CA       -23.7390  -14.4550   -0.5410 C.3   101  HIS101      0.1656
    171  C        -24.6150  -13.8180   -1.6030 C.2   101  HIS101      0.2291
    172  O        -24.1430  -13.3080   -2.6000 O.2   101  HIS101     -0.2864
    173  CB       -22.9450  -13.4210    0.2470 C.3   101  HIS101      0.0771
    174  CG       -21.9570  -12.6440   -0.5630 C.ar  101  HIS101      0.0820
    175  ND1      -22.1880  -12.2780   -1.8710 N.ar  101  HIS101     -0.2267
    176  CD2      -20.7650  -12.1010   -0.2200 C.ar  101  HIS101      0.1154
    177  CE1      -21.1630  -11.5700   -2.3120 C.ar  101  HIS101      0.1986
    178  NE2      -20.2870  -11.4450   -1.3280 N.ar  101  HIS101     -0.2212
    179  N        -18.9390   -6.8370   -2.5620 N.3   107  GLU107     -0.1245
    180  CA       -17.6640   -6.8440   -1.8920 C.3   107  GLU107      0.1567
    181  C        -16.7610   -5.7840   -2.4560 C.2   107  GLU107      0.2260
    182  O        -16.4600   -5.8070   -3.6420 O.2   107  GLU107     -0.2867
    183  CB       -16.9800   -8.1910   -2.0670 C.3   107  GLU107      0.0388
    184  CG       -17.6000   -9.3240   -1.3120 C.3   107  GLU107      0.1160
    185  CD       -16.8580  -10.6270   -1.5670 C.2   107  GLU107      0.3649
    186  OE1      -15.7370  -10.8010   -1.0090 O.co2 107  GLU107     -0.2457
    187  OE2      -17.3750  -11.4800   -2.3280 O.co2 107  GLU107     -0.2457
@<TRIPOS>BOND
     1    97    95    1
     2    94    95    2
     3    94    93    1
     4    95    96    1
     5    93    92    1
     6   123   122    2
     7    92    91    1
     8   115   117   ar
     9   115   114   ar
    10   117   119   ar
    11   122   121    1
    12   120   121    1
    13   111   110    1
    14   111   112    2
    15   101   100    2
    16   110   113    1
    17   110   109    1
    18    91    88    1
    19   113   114    1
    20   121   124    1
    21   114   116   ar
    22   119   118   ar
    23   100   109   am
    24   100    99    1
    25    88    89    1
    26    88    87    1
    27    98    89   am
    28    98    99    1
    29   126   124    1
    30    89    90    2
    31   124   125    1
    32   116   118   ar
    33    61    62    1
    34    64    63    2
    35    99   102    1
    36    63    62    1
    37    62    65    1
    38   102   103    1
    39    60    59    1
    40    57    59   ar
    41    57    55   ar
    42   136   137    2
    43   136   135    1
    44    67    69   ar
    45    67    66   ar
    46    69    71   ar
    47   141   142    1
    48    59    58   ar
    49    55    54   ar
    50   135   134    1
    51   135   138    1
    52   105   103   ar
    53   105   107   ar
    54    65    66    1
    55   103   104   ar
    56    66    68   ar
    57    71    70   ar
    58   134   140    1
    59    49    50    1
    60    52    51    2
    61   145   142    1
    62   145   146    1
    63    50    51    1
    64    50    53    1
    65   142   143    1
    66    58    56   ar
    67    54    56   ar
    68    54    53    1
    69   128   129    1
    70   128   127    1
    71   128   131    1
    72    68    70   ar
    73   129   130    2
    74   107   108   ar
    75   146   147    1
    76   138   139    1
    77   132   131    1
    78   104   106   ar
    79   131   133    1
    80   147   148    1
    81   140   139    1
    82   143   144    2
    83   143   150   am
    84   149   148    1
    85   108   106   ar
    86   150   151    1
    87   156   154    1
    88   154   151    1
    89   154   155    1
    90   151   152    1
    91    38    36   ar
    92    38    40   ar
    93   182   181    2
    94   153   152    2
    95    36    35   ar
    96    48    46    1
    97    33    32    2
    98   152   157   am
    99    40    39   ar
   100    35    34    1
   101    35    37   ar
   102   172   171    2
   103   179   180    1
   104    34    31    1
   105   181   180    1
   106   187   185   ar
   107   177   175   ar
   108   177   178   ar
   109    32    31    1
   110    32    41   am
   111    46    47    1
   112    46    45    1
   113   183   180    1
   114   183   184    1
   115    39    37   ar
   116    31    30    1
   117   175   174   ar
   118    42    41    1
   119    42    43    1
   120    42    45    1
   121    44    43    2
   122   157   158    1
   123   171   170    1
   124   185   184    1
   125   185   186   ar
   126   178   176   ar
   127   169   159   am
   128   169   170    1
   129    78    76    1
   130   158   159    1
   131   158   161    1
   132   159   160    2
   133   174   176   ar
   134   174   173    1
   135   170   173    1
   136    76    77    1
   137    76    73    1
   138    29    28    2
   139   161   162    1
   140    73    72    1
   141    73    74    1
   142   162   164   ar
   143   162   163   ar
   144   164   166   ar
   145    28    27    1
   146    27    26    1
   147    20    19    2
   148    24    23   ar
   149    74    75    2
   150   163   165   ar
   151   166   167   ar
   152    80    81    1
   153    80    79    1
   154    80    83    1
   155    19    26   am
   156    19    18    1
   157    85    84    2
   158    81    82    2
   159    21    18    1
   160    21    22    1
   161    84    83    1
   162    84    86   am
   163    23    25   ar
   164    23    22    1
   165   165   167   ar
   166   167   168    1
   167    18    17    1
   168    17    15   am
   169    16    15    2
   170    11    10    1
   171    15    14    1
   172    10     9    1
   173    10    12    1
   174     9     6    1
   175     5     6    1
   176     5     3   am
   177     2     1    1
   178     2     3    1
   179    13    14    1
   180    13     7   am
   181     6     7    1
   182     7     8    2
   183     3     4    2
