@<TRIPOS>MOLECULE
tmp/2vbwA00.pdb
 73 72 0 0 0
SMALL
GASTEIGER

@<TRIPOS>ATOM
      1  N         -5.5810   14.6700    4.7520 N.3    72  PRO72      -0.2116
      2  CA        -6.8910   15.3750    4.6550 C.3    72  PRO72       0.1372
      3  C         -7.9870   14.4860    4.1590 C.2    72  PRO72       0.2244
      4  O         -7.7720   13.7270    3.2280 O.2    72  PRO72      -0.2868
      5  CB        -6.6080   16.4800    3.6530 C.3    72  PRO72       0.0268
      6  CG        -5.1170   16.8120    3.9660 C.3    72  PRO72       0.0207
      7  CD        -4.5040   15.4480    4.0850 C.3    72  PRO72       0.0892
      8  N         -5.1630   23.9490    3.4140 N.3    79  ASP79      -0.1239
      9  CA        -4.3130   23.1020    4.2410 C.3    79  ASP79       0.1674
     10  C         -3.6250   23.7310    5.4560 C.2    79  ASP79       0.2266
     11  O         -2.4870   24.2090    5.3930 O.2    79  ASP79      -0.2867
     12  CB        -3.3440   22.2380    3.4420 C.3    79  ASP79       0.1410
     13  CG        -2.6750   21.1790    4.3220 C.2    79  ASP79       0.3668
     14  OD1       -3.2770   20.7020    5.3340 O.co2  79  ASP79      -0.2456
     15  OD2       -1.5310   20.8470    3.9970 O.co2  79  ASP79      -0.2456
     16  N          5.6790   17.9520    7.9540 N.3    96  SER96      -0.1202
     17  CA         5.1040   17.6080    6.6810 C.3    96  SER96       0.2020
     18  C          6.1250   16.6790    6.0050 C.2    96  SER96       0.2619
     19  O          7.3480   16.7730    6.2070 O.2    96  SER96      -0.2717
     20  CB         4.7840   18.8270    5.8380 C.3    96  SER96       0.2103
     21  OG         5.9570   19.5790    5.6610 O.3    96  SER96      -0.2182
     22  N          5.6090   15.7910    5.1830 N.am   97  VAL97      -0.1965
     23  CA         6.3920   14.6360    4.7480 C.3    97  VAL97       0.1727
     24  C          6.1200   14.3980    3.2560 C.2    97  VAL97       0.2616
     25  O          5.0540   14.7160    2.7510 O.2    97  VAL97      -0.2715
     26  CB         6.0060   13.5320    5.7740 C.3    97  VAL97       0.0290
     27  CG1        5.0770   12.4420    5.3220 C.3    97  VAL97       0.0023
     28  CG2        6.9860   13.3630    6.9950 C.3    97  VAL97       0.0023
     29  N          7.1100   13.8790    2.5350 N.am   98  ALA98      -0.1963
     30  CA         6.9190   13.4250    1.1630 C.3    98  ALA98       0.1728
     31  C          6.2630   12.0460    1.1520 C.2    98  ALA98       0.2617
     32  O          6.5290   11.2510    2.0140 O.2    98  ALA98      -0.2715
     33  CB         8.2200   13.3980    0.4580 C.3    98  ALA98       0.0334
     34  N          5.3870   11.7750    0.1900 N.am   99  GLY99      -0.1940
     35  CA         4.7060   10.4950    0.1250 C.3    99  GLY99       0.2014
     36  C          3.2020   10.6460    0.0800 C.2    99  GLY99       0.2639
     37  O          2.6920   11.6880   -0.2720 O.2    99  GLY99      -0.2714
     38  N          2.4920    9.6020    0.4660 N.am  100  GLU100     -0.1963
     39  CA         1.0350    9.5360    0.3890 C.3   100  GLU100      0.1733
     40  C          0.3740   10.3310    1.5170 C.2   100  GLU100      0.2616
     41  O         -0.5440   11.1080    1.3170 O.2   100  GLU100     -0.2715
     42  CB         0.6490    8.0730    0.5230 C.3   100  GLU100      0.0429
     43  CG        -0.6790    7.7760   -0.1790 C.3   100  GLU100      0.1163
     44  CD        -1.0880    6.2660   -0.0470 C.2   100  GLU100      0.3649
     45  OE1       -2.2850    6.0250    0.3150 O.co2 100  GLU100     -0.2457
     46  OE2       -0.2160    5.3590   -0.2600 O.co2 100  GLU100     -0.2457
     47  N          0.9070   10.2150    2.7020 N.am  101  GLU101     -0.1963
     48  CA         0.4890   11.0540    3.8240 C.3   101  GLU101      0.1733
     49  C          1.0710   12.4680    3.7540 C.2   101  GLU101      0.2617
     50  O          2.0540   12.7070    3.0200 O.2   101  GLU101     -0.2715
     51  CB         0.8470   10.3330    5.1060 C.3   101  GLU101      0.0429
     52  CG        -0.1390    9.1160    5.1630 C.3   101  GLU101      0.1163
     53  CD         0.4630    7.8240    5.6550 C.2   101  GLU101      0.3649
     54  OE1        1.7180    7.6660    5.7070 O.co2 101  GLU101     -0.2457
     55  OE2       -0.3550    6.9480    5.9830 O.co2 101  GLU101     -0.2457
     56  N          0.4230   13.3890    4.4730 N.am  102  SER102     -0.1936
     57  CA         0.7730   14.8030    4.5190 C.3   102  SER102      0.2055
     58  C          1.6040   15.1920    5.7150 C.2   102  SER102      0.2643
     59  O          2.5740   15.9070    5.5510 O.2   102  SER102     -0.2714
     60  CB        -0.5090   15.6840    4.4790 C.3   102  SER102      0.2130
     61  OG        -1.2790   15.3370    3.3640 O.3   102  SER102     -0.2179
     62  N          1.2610   14.7030    6.8980 N.am  103  TYR103     -0.1973
     63  CA         1.9180   15.1210    8.1120 C.3   103  TYR103      0.1639
     64  C          2.1230   13.8910    8.9340 C.2   103  TYR103      0.2290
     65  O          1.3280   12.9390    8.8740 O.2   103  TYR103     -0.2864
     66  CB         1.1100   16.1940    8.9530 C.3   103  TYR103      0.0560
     67  CG         0.7360   17.4090    8.1460 C.ar  103  TYR103     -0.0198
     68  CD1        1.6710   18.4510    7.9700 C.ar  103  TYR103     -0.0009
     69  CD2       -0.4990   17.4900    7.4640 C.ar  103  TYR103     -0.0009
     70  CE1        1.3930   19.5440    7.2070 C.ar  103  TYR103      0.0417
     71  CE2       -0.8070   18.6110    6.6680 C.ar  103  TYR103      0.0417
     72  CZ         0.1710   19.6250    6.5640 C.ar  103  TYR103      0.1957
     73  OH        -0.0050   20.7580    5.8150 O.3   103  TYR103     -0.2866
@<TRIPOS>BOND
     1    37    36    2
     2    46    44   ar
     3    43    44    1
     4    43    42    1
     5    44    45   ar
     6    36    35    1
     7    36    38   am
     8    35    34    1
     9    34    31   am
    10    39    38    1
    11    39    42    1
    12    39    40    1
    13    33    30    1
    14    31    30    1
    15    31    32    2
    16    30    29    1
    17    41    40    2
    18    40    47   am
    19    29    24   am
    20    47    48    1
    21    25    24    2
    22    50    49    2
    23     4     3    2
    24    24    23    1
    25    61    60    1
    26     8     9    1
    27    12     9    1
    28    12    13    1
    29     5     6    1
    30     5     2    1
    31    49    48    1
    32    49    56   am
    33    48    51    1
    34     6     7    1
    35    15    13   ar
    36     7     1    1
    37     3     2    1
    38     9    10    1
    39    13    14   ar
    40    56    57    1
    41    60    57    1
    42    57    58    1
    43     2     1    1
    44    23    22    1
    45    23    26    1
    46    51    52    1
    47    52    53    1
    48    22    18   am
    49    27    26    1
    50    11    10    2
    51    59    58    2
    52    53    54   ar
    53    53    55   ar
    54    21    20    1
    55    58    62   am
    56    26    28    1
    57    73    72    1
    58    20    17    1
    59    18    19    2
    60    18    17    1
    61    72    71   ar
    62    72    70   ar
    63    71    69   ar
    64    17    16    1
    65    62    63    1
    66    70    68   ar
    67    69    67   ar
    68    68    67   ar
    69    63    64    1
    70    63    66    1
    71    67    66    1
    72    65    64    2
