@<TRIPOS>MOLECULE
tmp/2vbxA00.pdb
 73 72 0 0 0
SMALL
GASTEIGER

@<TRIPOS>ATOM
      1  N         -4.9200   15.0400    4.8270 N.3    72  PRO72      -0.2116
      2  CA        -6.1630   15.8380    4.5360 C.3    72  PRO72       0.1372
      3  C         -7.3380   15.1240    3.9380 C.2    72  PRO72       0.2244
      4  O         -7.1720   14.3500    3.0090 O.2    72  PRO72      -0.2868
      5  CB        -5.6660   16.9050    3.6050 C.3    72  PRO72       0.0268
      6  CG        -4.2560   17.3040    4.3170 C.3    72  PRO72       0.0207
      7  CD        -3.7110   15.8050    4.4360 C.3    72  PRO72       0.0892
      8  N         -2.7340   24.3780    3.4480 N.3    79  ASP79      -0.1239
      9  CA        -2.6170   23.3500    4.4200 C.3    79  ASP79       0.1674
     10  C         -2.5920   23.9490    5.7700 C.2    79  ASP79       0.2266
     11  O         -1.9450   24.9510    6.0160 O.2    79  ASP79      -0.2867
     12  CB        -1.4010   22.4430    4.1960 C.3    79  ASP79       0.1410
     13  CG        -1.7010   21.0000    4.5970 C.2    79  ASP79       0.3668
     14  OD1       -2.5520   20.7550    5.5570 O.co2  79  ASP79      -0.2456
     15  OD2       -1.0860   20.1440    3.8990 O.co2  79  ASP79      -0.2456
     16  N          6.0520   17.9420    8.1510 N.3    96  SER96      -0.1202
     17  CA         5.4470   17.5560    6.8480 C.3    96  SER96       0.2020
     18  C          6.4980   16.6770    6.1570 C.2    96  SER96       0.2619
     19  O          7.7130   16.8300    6.4050 O.2    96  SER96      -0.2717
     20  CB         5.1910   18.7330    5.9510 C.3    96  SER96       0.2103
     21  OG         6.3920   19.4870    6.0260 O.3    96  SER96      -0.2182
     22  N          6.0450   15.8700    5.1930 N.am   97  VAL97      -0.1965
     23  CA         6.7690   14.6630    4.8360 C.3    97  VAL97       0.1727
     24  C          6.3310   14.4470    3.3190 C.2    97  VAL97       0.2616
     25  O          5.2500   14.7670    2.8170 O.2    97  VAL97      -0.2715
     26  CB         6.2570   13.6810    5.8930 C.3    97  VAL97       0.0290
     27  CG1        5.1140   12.7260    5.4430 C.3    97  VAL97       0.0023
     28  CG2        7.3210   13.1970    6.8040 C.3    97  VAL97       0.0023
     29  N          7.3870   13.9370    2.5220 N.am   98  ALA98      -0.1963
     30  CA         7.1700   13.5790    1.1360 C.3    98  ALA98       0.1728
     31  C          6.4760   12.2390    1.2240 C.2    98  ALA98       0.2617
     32  O          6.6180   11.5350    2.1850 O.2    98  ALA98      -0.2715
     33  CB         8.4070   13.4160    0.4600 C.3    98  ALA98       0.0334
     34  N          5.7330   11.8620    0.2030 N.am   99  GLY99      -0.1940
     35  CA         5.0780   10.5560    0.1050 C.3    99  GLY99       0.2014
     36  C          3.5600   10.6500    0.1980 C.2    99  GLY99       0.2639
     37  O          2.9060   11.6290   -0.2090 O.2    99  GLY99      -0.2714
     38  N          2.9510    9.6490    0.7970 N.am  100  GLU100     -0.1963
     39  CA         1.5480    9.4760    0.5260 C.3   100  GLU100      0.1733
     40  C          0.7990   10.2380    1.5410 C.2   100  GLU100      0.2616
     41  O         -0.2940   10.5930    1.3180 O.2   100  GLU100     -0.2715
     42  CB         1.2720    8.0350    0.6610 C.3   100  GLU100      0.0429
     43  CG         0.0470    7.5560   -0.0730 C.3   100  GLU100      0.1163
     44  CD        -0.0820    6.0170    0.1090 C.2   100  GLU100      0.3649
     45  OE1        0.8230    5.4420    0.8230 O.co2 100  GLU100     -0.2457
     46  OE2       -1.0580    5.4000   -0.4290 O.co2 100  GLU100     -0.2457
     47  N          1.4330   10.5030    2.6680 N.am  101  GLU101     -0.1963
     48  CA         0.8600   11.1620    3.8490 C.3   101  GLU101      0.1733
     49  C          1.3730   12.6100    3.9590 C.2   101  GLU101      0.2617
     50  O          2.4080   12.9030    3.4050 O.2   101  GLU101     -0.2715
     51  CB         1.2470   10.3120    5.0820 C.3   101  GLU101      0.0429
     52  CG         0.2290    9.1360    5.3390 C.3   101  GLU101      0.1163
     53  CD         0.9060    7.8340    5.6620 C.2   101  GLU101      0.3649
     54  OE1        2.1720    7.7890    5.7270 O.co2 101  GLU101     -0.2457
     55  OE2        0.1870    6.8160    5.8320 O.co2 101  GLU101     -0.2457
     56  N          0.6920   13.5390    4.6430 N.am  102  SER102     -0.1936
     57  CA         1.2400   14.9050    4.7110 C.3   102  SER102      0.2055
     58  C          2.0150   15.3060    5.9190 C.2   102  SER102      0.2643
     59  O          3.0530   15.9620    5.7660 O.2   102  SER102     -0.2714
     60  CB         0.1930   15.8930    4.5070 C.3   102  SER102      0.2130
     61  OG        -0.2920   15.6450    3.2500 O.3   102  SER102     -0.2179
     62  N          1.5540   14.9810    7.1160 N.am  103  TYR103     -0.1973
     63  CA         2.4040   15.2900    8.2400 C.3   103  TYR103      0.1639
     64  C          2.5650   14.0430    9.0420 C.2   103  TYR103      0.2290
     65  O          1.8120   13.1530    8.8530 O.2   103  TYR103     -0.2864
     66  CB         1.7730   16.3490    9.0530 C.3   103  TYR103      0.0560
     67  CG         1.3960   17.5580    8.2680 C.ar  103  TYR103     -0.0198
     68  CD1        2.3110   18.6340    8.1300 C.ar  103  TYR103     -0.0009
     69  CD2        0.1160   17.6680    7.6660 C.ar  103  TYR103     -0.0009
     70  CE1        1.9830   19.7640    7.4500 C.ar  103  TYR103      0.0417
     71  CE2       -0.2060   18.7860    6.9620 C.ar  103  TYR103      0.0417
     72  CZ         0.7520   19.8220    6.8800 C.ar  103  TYR103      0.1957
     73  OH         0.4730   20.9560    6.1930 O.3   103  TYR103     -0.2866
@<TRIPOS>BOND
     1    46    44   ar
     2    37    36    2
     3    43    44    1
     4    43    42    1
     5    35    36    1
     6    35    34    1
     7    44    45   ar
     8    36    38   am
     9    34    31   am
    10    33    30    1
    11    39    42    1
    12    39    38    1
    13    39    40    1
    14    30    31    1
    15    30    29    1
    16    31    32    2
    17    41    40    2
    18    40    47   am
    19    29    24   am
    20    47    48    1
    21    25    24    2
    22     4     3    2
    23    61    60    1
    24    24    23    1
    25    50    49    2
    26     8     9    1
    27     5     6    1
    28     5     2    1
    29    48    49    1
    30    48    51    1
    31    15    13   ar
    32     3     2    1
    33    49    56   am
    34    12     9    1
    35    12    13    1
    36     6     7    1
    37     9    10    1
    38     7     1    1
    39    60    57    1
    40     2     1    1
    41    13    14   ar
    42    56    57    1
    43    57    58    1
    44    23    22    1
    45    23    26    1
    46    51    52    1
    47    22    18   am
    48    52    53    1
    49    27    26    1
    50    53    54   ar
    51    53    55   ar
    52    59    58    2
    53    10    11    2
    54    26    28    1
    55    58    62   am
    56    20    21    1
    57    20    17    1
    58    18    19    2
    59    18    17    1
    60    73    72    1
    61    17    16    1
    62    72    71   ar
    63    72    70   ar
    64    71    69   ar
    65    62    63    1
    66    70    68   ar
    67    69    67   ar
    68    68    67   ar
    69    63    64    1
    70    63    66    1
    71    67    66    1
    72    65    64    2
