@<TRIPOS>MOLECULE
tmp/2vbzA00.pdb
 80 79 0 0 0
SMALL
GASTEIGER

@<TRIPOS>ATOM
      1  N         -5.0790   15.0710    4.9080 N.3    72  PRO72      -0.2116
      2  CA        -6.2750   15.8800    4.5890 C.3    72  PRO72       0.1372
      3  C         -7.4170   15.1050    3.9970 C.2    72  PRO72       0.2244
      4  O         -7.2260   14.3640    3.0130 O.2    72  PRO72      -0.2868
      5  CB        -5.7600   16.8200    3.5660 C.3    72  PRO72       0.0268
      6  CG        -4.3770   17.1810    4.1620 C.3    72  PRO72       0.0207
      7  CD        -3.8610   15.7750    4.4210 C.3    72  PRO72       0.0892
      8  N         -7.8050   17.9320    0.4150 N.3    75  PRO75      -0.2116
      9  CA        -6.5510   18.8010    0.3520 C.3    75  PRO75       0.1372
     10  C         -6.6040   20.1380   -0.3660 C.2    75  PRO75       0.2244
     11  O         -5.4920   20.7090   -0.6360 O.2    75  PRO75      -0.2868
     12  CB        -5.5290   17.9350   -0.3970 C.3    75  PRO75       0.0268
     13  CG        -6.3860   17.0470   -1.2430 C.3    75  PRO75       0.0207
     14  CD        -7.7210   16.7620   -0.4870 C.3    75  PRO75       0.0892
     15  N         -2.9950   24.3560    3.9970 N.3    79  ASP79      -0.1239
     16  CA        -3.0760   23.5060    5.1270 C.3    79  ASP79       0.1674
     17  C         -2.9920   24.1890    6.4850 C.2    79  ASP79       0.2266
     18  O         -1.9890   24.7850    6.9120 O.2    79  ASP79      -0.2867
     19  CB        -2.1700   22.2720    4.9710 C.3    79  ASP79       0.1410
     20  CG        -2.8720   20.9800    5.4340 C.2    79  ASP79       0.3668
     21  OD1       -3.9380   21.0330    6.0970 O.co2  79  ASP79      -0.2456
     22  OD2       -2.3750   19.8940    5.1120 O.co2  79  ASP79      -0.2456
     23  N          5.9990   17.9510    8.0760 N.3    96  SER96      -0.1202
     24  CA         5.4070   17.5780    6.7740 C.3    96  SER96       0.2020
     25  C          6.4440   16.6630    6.1170 C.2    96  SER96       0.2619
     26  O          7.7020   16.7220    6.3970 O.2    96  SER96      -0.2717
     27  CB         5.0990   18.7510    5.8660 C.3    96  SER96       0.2103
     28  OG         6.2340   19.5870    5.9070 O.3    96  SER96      -0.2182
     29  N          5.9350   15.8340    5.2190 N.am   97  VAL97      -0.1965
     30  CA         6.6590   14.6320    4.9190 C.3    97  VAL97       0.1727
     31  C          6.3950   14.3910    3.4180 C.2    97  VAL97       0.2616
     32  O          5.3550   14.8110    2.8920 O.2    97  VAL97      -0.2715
     33  CB         6.1270   13.6800    5.9670 C.3    97  VAL97       0.0290
     34  CG1        5.0150   12.8110    5.4850 C.3    97  VAL97       0.0023
     35  CG2        7.2110   13.0100    6.6450 C.3    97  VAL97       0.0023
     36  N          7.3290   13.8220    2.6820 N.am   98  ALA98      -0.1963
     37  CA         7.0290   13.4460    1.2960 C.3    98  ALA98       0.1728
     38  C          6.4480   12.0800    1.3030 C.2    98  ALA98       0.2617
     39  O          6.7920   11.2960    2.1260 O.2    98  ALA98      -0.2715
     40  CB         8.2590   13.4370    0.4790 C.3    98  ALA98       0.0334
     41  N          5.6000   11.7890    0.3340 N.am   99  GLY99      -0.1940
     42  CA         4.9440   10.5110    0.1580 C.3    99  GLY99       0.2014
     43  C          3.4290   10.5820    0.2350 C.2    99  GLY99       0.2639
     44  O          2.7840   11.5690   -0.1290 O.2    99  GLY99      -0.2714
     45  N          2.8330    9.5200    0.7330 N.am  100  GLU100     -0.1963
     46  CA         1.4280    9.3880    0.5650 C.3   100  GLU100      0.1733
     47  C          0.7730   10.2490    1.5960 C.2   100  GLU100      0.2616
     48  O         -0.1550   10.9030    1.2860 O.2   100  GLU100     -0.2715
     49  CB         1.0760    7.9330    0.6600 C.3   100  GLU100      0.0429
     50  CG        -0.3010    7.5620    0.0820 C.3   100  GLU100      0.1163
     51  CD        -0.2590    6.0620   -0.4740 C.2   100  GLU100      0.3649
     52  OE1       -0.6290    5.0800    0.2860 O.co2 100  GLU100     -0.2457
     53  OE2        0.2060    5.8870   -1.6750 O.co2 100  GLU100     -0.2457
     54  N          1.2820   10.3100    2.8120 N.am  101  GLU101     -0.1963
     55  CA         0.6640   11.1810    3.8570 C.3   101  GLU101      0.1733
     56  C          1.2580   12.5970    3.8860 C.2   101  GLU101      0.2617
     57  O          2.2520   12.8380    3.1900 O.2   101  GLU101     -0.2715
     58  CB         0.8260   10.5160    5.2140 C.3   101  GLU101      0.0429
     59  CG        -0.0620    9.2730    5.3430 C.3   101  GLU101      0.1163
     60  CD         0.7790    8.0640    5.6200 C.2   101  GLU101      0.3649
     61  OE1        2.0300    8.2360    5.5840 O.co2 101  GLU101     -0.2457
     62  OE2        0.2020    6.9720    5.8870 O.co2 101  GLU101     -0.2457
     63  N          0.7140   13.5130    4.7010 N.am  102  SER102     -0.1936
     64  CA         1.2300   14.8960    4.7010 C.3   102  SER102      0.2055
     65  C          1.9760   15.3260    5.9070 C.2   102  SER102      0.2643
     66  O          2.9570   16.0670    5.8440 O.2   102  SER102     -0.2714
     67  CB         0.1370   15.8720    4.5130 C.3   102  SER102      0.2130
     68  OG        -0.7360   15.3670    3.5250 O.3   102  SER102     -0.2179
     69  N          1.5120   14.9080    7.0490 N.am  103  TYR103     -0.1973
     70  CA         2.2910   15.2440    8.2070 C.3   103  TYR103      0.1639
     71  C          2.4730   14.0440    9.0340 C.2   103  TYR103      0.2290
     72  O          1.6960   13.1450    8.9420 O.2   103  TYR103     -0.2864
     73  CB         1.6120   16.2590    9.0300 C.3   103  TYR103      0.0560
     74  CG         1.3110   17.5090    8.2660 C.ar  103  TYR103     -0.0198
     75  CD1        2.2790   18.5530    8.1590 C.ar  103  TYR103     -0.0009
     76  CD2        0.0390   17.6630    7.6550 C.ar  103  TYR103     -0.0009
     77  CE1        1.9510   19.7180    7.5070 C.ar  103  TYR103      0.0417
     78  CE2       -0.2420   18.7800    6.9990 C.ar  103  TYR103      0.0417
     79  CZ         0.7120   19.8000    6.9420 C.ar  103  TYR103      0.1957
     80  OH         0.3490   20.8980    6.2440 O.3   103  TYR103     -0.2866
@<TRIPOS>BOND
     1    53    51   ar
     2    13    14    1
     3    13    12    1
     4    11    10    2
     5    14     8    1
     6    51    50    1
     7    51    52   ar
     8    12     9    1
     9    10     9    1
    10    44    43    2
    11    50    49    1
    12    42    43    1
    13    42    41    1
    14    43    45   am
    15    41    38   am
    16     9     8    1
    17    40    37    1
    18    46    49    1
    19    46    45    1
    20    46    47    1
    21    48    47    2
    22    37    38    1
    23    37    36    1
    24    38    39    2
    25    47    54   am
    26    36    31   am
    27    54    55    1
    28    32    31    2
    29     4     3    2
    30    57    56    2
    31    31    30    1
    32    68    67    1
    33     5     6    1
    34     5     2    1
    35    55    56    1
    36    55    58    1
    37    56    63   am
    38    15    16    1
    39     3     2    1
    40     6     7    1
    41     7     1    1
    42    67    64    1
    43     2     1    1
    44    63    64    1
    45    64    65    1
    46    30    29    1
    47    30    33    1
    48    19    16    1
    49    19    20    1
    50    22    20   ar
    51    16    17    1
    52    58    59    1
    53    29    25   am
    54    59    60    1
    55    20    21   ar
    56    34    33    1
    57    61    60   ar
    58    60    62   ar
    59    66    65    2
    60    27    28    1
    61    27    24    1
    62    65    69   am
    63    33    35    1
    64    25    26    2
    65    25    24    1
    66    80    79    1
    67    17    18    2
    68    24    23    1
    69    79    78   ar
    70    79    77   ar
    71    78    76   ar
    72    69    70    1
    73    77    75   ar
    74    76    74   ar
    75    75    74   ar
    76    70    73    1
    77    70    71    1
    78    74    73    1
    79    72    71    2
