@<TRIPOS>MOLECULE
tmp/2vc0A00.pdb
 73 72 0 0 0
SMALL
GASTEIGER

@<TRIPOS>ATOM
      1  N         -4.8280   15.1740    4.8810 N.3    72  PRO72      -0.2116
      2  CA        -6.0450   16.0420    4.6630 C.3    72  PRO72       0.1372
      3  C         -7.1590   15.3300    3.9970 C.2    72  PRO72       0.2244
      4  O         -6.9310   14.6640    3.0020 O.2    72  PRO72      -0.2868
      5  CB        -5.5340   17.1000    3.7140 C.3    72  PRO72       0.0268
      6  CG        -4.1160   17.3750    4.2920 C.3    72  PRO72       0.0207
      7  CD        -3.6120   15.8970    4.4510 C.3    72  PRO72       0.0892
      8  N         -3.2610   24.5480    4.0050 N.3    79  ASP79      -0.1239
      9  CA        -3.2230   23.5830    5.0560 C.3    79  ASP79       0.1674
     10  C         -2.9090   24.2950    6.3410 C.2    79  ASP79       0.2266
     11  O         -1.8640   24.9610    6.5020 O.2    79  ASP79      -0.2867
     12  CB        -2.1010   22.5940    4.7150 C.3    79  ASP79       0.1410
     13  CG        -2.2780   21.2400    5.3740 C.2    79  ASP79       0.3668
     14  OD1       -3.1670   21.0630    6.2610 O.co2  79  ASP79      -0.2456
     15  OD2       -1.4810   20.3560    4.9740 O.co2  79  ASP79      -0.2456
     16  N          6.2790   18.0410    8.2420 N.3    96  SER96      -0.1202
     17  CA         5.6910   17.6450    6.9380 C.3    96  SER96       0.2020
     18  C          6.6850   16.7120    6.2420 C.2    96  SER96       0.2619
     19  O          7.8740   16.7850    6.4860 O.2    96  SER96      -0.2717
     20  CB         5.2460   18.8100    6.0570 C.3    96  SER96       0.2103
     21  OG         6.4030   19.4860    5.7430 O.3    96  SER96      -0.2182
     22  N          6.1980   15.9130    5.3110 N.am   97  VAL97      -0.1965
     23  CA         6.9090   14.6960    4.9270 C.3    97  VAL97       0.1727
     24  C          6.5490   14.4910    3.4540 C.2    97  VAL97       0.2616
     25  O          5.4970   14.9660    3.0190 O.2    97  VAL97      -0.2715
     26  CB         6.3590   13.6450    5.9580 C.3    97  VAL97       0.0290
     27  CG1        5.3260   12.7090    5.4540 C.3    97  VAL97       0.0023
     28  CG2        7.3930   13.1940    6.9840 C.3    97  VAL97       0.0023
     29  N          7.4440   13.9230    2.6650 N.am   98  ALA98      -0.1963
     30  CA         7.1410   13.4940    1.3080 C.3    98  ALA98       0.1728
     31  C          6.4200   12.1470    1.2870 C.2    98  ALA98       0.2617
     32  O          6.5760   11.3830    2.1970 O.2    98  ALA98      -0.2715
     33  CB         8.4210   13.3500    0.5560 C.3    98  ALA98       0.0334
     34  N          5.7280   11.8120    0.1980 N.am   99  GLY99      -0.1940
     35  CA         5.0550   10.5210    0.0040 C.3    99  GLY99       0.2014
     36  C          3.5570   10.6320    0.1730 C.2    99  GLY99       0.2639
     37  O          2.8740   11.6140   -0.1850 O.2    99  GLY99      -0.2714
     38  N          2.9850    9.6170    0.7420 N.am  100  GLU100     -0.1963
     39  CA         1.5620    9.4780    0.6010 C.3   100  GLU100      0.1733
     40  C          0.8180   10.3250    1.6040 C.2   100  GLU100      0.2616
     41  O         -0.2220   10.8450    1.2870 O.2   100  GLU100     -0.2715
     42  CB         1.2250    8.0530    0.7920 C.3   100  GLU100      0.0429
     43  CG        -0.1010    7.7470    0.1810 C.3   100  GLU100      0.1163
     44  CD        -0.0150    6.3730   -0.4900 C.2   100  GLU100      0.3649
     45  OE1       -0.0330    5.3370    0.2650 O.co2 100  GLU100     -0.2457
     46  OE2        0.1400    6.3580   -1.7650 O.co2 100  GLU100     -0.2457
     47  N          1.3760   10.4880    2.7890 N.am  101  GLU101     -0.1963
     48  CA         0.7860   11.2500    3.8930 C.3   101  GLU101      0.1733
     49  C          1.3750   12.6310    3.9580 C.2   101  GLU101      0.2617
     50  O          2.4380   12.8330    3.4240 O.2   101  GLU101     -0.2715
     51  CB         1.0500   10.5170    5.2130 C.3   101  GLU101      0.0429
     52  CG         0.0490    9.3940    5.3330 C.3   101  GLU101      0.1163
     53  CD         0.6800    8.0430    5.5930 C.2   101  GLU101      0.3649
     54  OE1        1.9690    7.9290    5.6470 O.co2 101  GLU101     -0.2457
     55  OE2       -0.1500    7.0990    5.7490 O.co2 101  GLU101     -0.2457
     56  N          0.7320   13.5820    4.6440 N.am  102  SER102     -0.1936
     57  CA         1.2980   14.9460    4.6000 C.3   102  SER102      0.2055
     58  C          2.0230   15.3570    5.8710 C.2   102  SER102      0.2643
     59  O          3.0040   16.1460    5.8020 O.2   102  SER102     -0.2714
     60  CB         0.2230   15.9440    4.2200 C.3   102  SER102      0.2130
     61  OG        -0.5930   15.3630    3.1820 O.3   102  SER102     -0.2179
     62  N          1.6410   14.8070    7.0290 N.am  103  TYR103     -0.1973
     63  CA         2.4700   15.1150    8.1950 C.3   103  TYR103      0.1639
     64  C          2.5900   13.9270    9.0630 C.2   103  TYR103      0.2290
     65  O          1.7450   13.0450    8.9980 O.2   103  TYR103     -0.2864
     66  CB         1.9000   16.2240    9.0570 C.3   103  TYR103      0.0560
     67  CG         1.5050   17.4790    8.3180 C.ar  103  TYR103     -0.0198
     68  CD1        2.4110   18.5730    8.1800 C.ar  103  TYR103     -0.0009
     69  CD2        0.2580   17.5930    7.7600 C.ar  103  TYR103     -0.0009
     70  CE1        2.0460   19.7200    7.5590 C.ar  103  TYR103      0.0417
     71  CE2       -0.1190   18.7620    7.1160 C.ar  103  TYR103      0.0417
     72  CZ         0.8000   19.7820    7.0230 C.ar  103  TYR103      0.1957
     73  OH         0.4170   20.9040    6.3510 O.3   103  TYR103     -0.2866
@<TRIPOS>BOND
     1    46    44   ar
     2    44    43    1
     3    44    45   ar
     4    37    36    2
     5    35    36    1
     6    35    34    1
     7    36    38   am
     8    43    42    1
     9    34    31   am
    10    33    30    1
    11    39    38    1
    12    39    42    1
    13    39    40    1
    14    41    40    2
    15    31    30    1
    16    31    32    2
    17    30    29    1
    18    40    47   am
    19    29    24   am
    20    47    48    1
    21     4     3    2
    22    25    24    2
    23    61    60    1
    24    50    49    2
    25    24    23    1
    26     5     6    1
    27     5     2    1
    28    48    49    1
    29    48    51    1
    30    49    56   am
    31     3     2    1
    32     8     9    1
    33    60    57    1
    34     6     7    1
    35     7     1    1
    36    57    56    1
    37    57    58    1
    38     2     1    1
    39    12     9    1
    40    12    13    1
    41    23    22    1
    42    23    26    1
    43    15    13   ar
    44     9    10    1
    45    51    52    1
    46    22    18   am
    47    52    53    1
    48    13    14   ar
    49    27    26    1
    50    53    54   ar
    51    53    55   ar
    52    21    20    1
    53    59    58    2
    54    58    62   am
    55    26    28    1
    56    20    17    1
    57    18    19    2
    58    18    17    1
    59    10    11    2
    60    73    72    1
    61    17    16    1
    62    72    71   ar
    63    72    70   ar
    64    62    63    1
    65    71    69   ar
    66    70    68   ar
    67    69    67   ar
    68    68    67   ar
    69    63    66    1
    70    63    64    1
    71    67    66    1
    72    65    64    2
