@<TRIPOS>MOLECULE
tmp/2vc2B00.pdb
 96 93 0 0 0
SMALL
GASTEIGER

@<TRIPOS>ATOM
      1  N         98.2750   40.9560   89.5900 N.3   117  SER117     -0.1202
      2  CA        98.2730   40.9370   88.1270 C.3   117  SER117      0.2020
      3  C         96.9810   41.5810   87.6270 C.2   117  SER117      0.2619
      4  O         96.0170   41.7010   88.3800 O.2   117  SER117     -0.2717
      5  CB        98.4090   39.5020   87.6000 C.3   117  SER117      0.2103
      6  OG        97.2030   38.7650   87.7290 O.3   117  SER117     -0.2182
      7  N         96.9600   41.9920   86.3620 N.am  118  TYR118     -0.1961
      8  CA        95.8270   42.7640   85.8250 C.3   118  TYR118      0.1771
      9  C         94.4970   41.9970   85.8440 C.2   118  TYR118      0.2620
     10  O         93.4220   42.6040   85.9060 O.2   118  TYR118     -0.2715
     11  CB        96.1250   43.2600   84.4030 C.3   118  TYR118      0.0574
     12  CG        95.2720   44.4370   83.9840 C.ar  118  TYR118     -0.0198
     13  CD1       95.4690   45.7000   84.5440 C.ar  118  TYR118     -0.0009
     14  CD2       94.2690   44.2920   83.0320 C.ar  118  TYR118     -0.0009
     15  CE1       94.6820   46.7850   84.1670 C.ar  118  TYR118      0.0417
     16  CE2       93.4830   45.3690   82.6480 C.ar  118  TYR118      0.0417
     17  CZ        93.6930   46.6100   83.2170 C.ar  118  TYR118      0.1957
     18  OH        92.9130   47.6710   82.8340 O.3   118  TYR118     -0.2866
     19  N         94.5760   40.6690   85.7960 N.am  119  SER119     -0.1950
     20  CA        93.3900   39.8230   85.8710 C.3   119  SER119      0.1924
     21  C         92.6940   39.9860   87.2190 C.2   119  SER119      0.2314
     22  O         91.4820   39.7980   87.3310 O.2   119  SER119     -0.2863
     23  CB        93.7630   38.3570   85.6400 C.3   119  SER119      0.2116
     24  OG        94.7680   37.9400   86.5450 O.3   119  SER119     -0.2180
     25  N        105.5860   42.3510   79.0200 N.3   162  TYR162     -0.1241
     26  CA       105.5510   43.1910   77.8220 C.3   162  TYR162      0.1605
     27  C        106.8250   44.0410   77.7990 C.2   162  TYR162      0.2264
     28  O        107.1000   44.7830   78.7470 O.2   162  TYR162     -0.2867
     29  CB       104.3130   44.0970   77.8110 C.3   162  TYR162      0.0534
     30  CG       103.0090   43.3520   77.6850 C.ar  162  TYR162     -0.0201
     31  CD1      102.1720   43.1670   78.7820 C.ar  162  TYR162     -0.0009
     32  CD2      102.6120   42.8290   76.4640 C.ar  162  TYR162     -0.0009
     33  CE1      100.9690   42.4700   78.6600 C.ar  162  TYR162      0.0417
     34  CE2      101.4200   42.1330   76.3300 C.ar  162  TYR162      0.0417
     35  CZ       100.6030   41.9530   77.4260 C.ar  162  TYR162      0.1957
     36  OH        99.4270   41.2580   77.2690 O.3   162  TYR162     -0.2866
     37  N         96.9100   50.3690   76.5340 N.3   176  MET176     -0.1245
     38  CA        95.4800   50.5190   76.7840 C.3   176  MET176      0.1570
     39  C         95.1070   51.9780   77.0610 C.2   176  MET176      0.2261
     40  O         93.9580   52.2750   77.3860 O.2   176  MET176     -0.2867
     41  CB        95.0810   49.6670   77.9800 C.3   176  MET176      0.0387
     42  CG        95.6360   48.2700   77.9290 C.3   176  MET176      0.0595
     43  SD        94.9960   47.2440   79.2580 S.3   176  MET176     -0.1393
     44  CE        95.4960   48.1760   80.7090 C.3   176  MET176      0.0692
     45  N        100.3860   44.4520   85.4410 N.3   210  ARG210     -0.1231
     46  CA        99.9520   43.6890   84.2650 C.3   210  ARG210      0.1694
     47  C        101.0700   42.8380   83.6490 C.2   210  ARG210      0.2592
     48  O        102.2390   43.2120   83.6830 O.2   210  ARG210     -0.2718
     49  CB        99.3850   44.6410   83.2120 C.3   210  ARG210      0.0321
     50  CG        98.7770   43.9480   82.0070 C.3   210  ARG210      0.0489
     51  CD        98.2480   44.9440   80.9890 C.3   210  ARG210      0.2205
     52  NE        98.0860   44.3150   79.6800 N.pl3 210  ARG210     -0.0865
     53  CZ        98.0660   44.9660   78.5210 C.cat 210  ARG210      0.5346
     54  NH1       98.1970   46.2830   78.4790 N.pl3 210  ARG210      0.1354
     55  NH2       97.9240   44.2920   77.3890 N.pl3 210  ARG210      0.1354
     56  N        100.6940   41.6890   83.0950 N.am  211  ASN211     -0.1960
     57  CA       101.6240   40.8340   82.3600 C.3   211  ASN211      0.1819
     58  C        100.8790   40.0430   81.2890 C.2   211  ASN211      0.2621
     59  O         99.6590   40.1170   81.2060 O.2   211  ASN211     -0.2715
     60  CB       102.4100   39.9180   83.3110 C.3   211  ASN211      0.1195
     61  CG       101.6140   38.7040   83.7660 C.2   211  ASN211      0.2630
     62  OD1      102.0520   37.5660   83.5860 O.2   211  ASN211     -0.2716
     63  ND2      100.4470   38.9380   84.3650 N.am  211  ASN211     -0.0877
     64  N        101.6070   39.2870   80.4760 N.am  212  ARG212     -0.1963
     65  CA       101.0390   38.7260   79.2460 C.3   212  ARG212      0.1729
     66  C        100.2440   37.4410   79.4360 C.2   212  ARG212      0.2616
     67  O         99.1370   37.3290   78.9170 O.2   212  ARG212     -0.2715
     68  CB       102.1430   38.4900   78.2100 C.3   212  ARG212      0.0348
     69  CG       101.6980   37.7330   76.9560 C.3   212  ARG212      0.0492
     70  CD       102.7790   37.7600   75.8910 C.3   212  ARG212      0.2205
     71  NE       102.8230   39.0450   75.1950 N.pl3 212  ARG212     -0.0865
     72  CZ       103.9310   39.6660   74.7940 C.cat 212  ARG212      0.5346
     73  NH1      105.1360   39.1530   75.0250 N.pl3 212  ARG212      0.1354
     74  NH2      103.8320   40.8270   74.1590 N.pl3 212  ARG212      0.1354
     75  N        100.8180   36.4680   80.1430 N.am  213  ASP213     -0.1957
     76  CA       100.2140   35.1330   80.2470 C.3   213  ASP213      0.1840
     77  C         99.4420   34.9080   81.5550 C.2   213  ASP213      0.2621
     78  O         99.8220   35.4080   82.6210 O.2   213  ASP213     -0.2715
     79  CB       101.2590   34.0220   80.0080 C.3   213  ASP213      0.1450
     80  CG       102.2730   33.8690   81.1480 C.2   213  ASP213      0.3671
     81  OD1      102.4330   34.7800   81.9840 O.co2 213  ASP213     -0.2456
     82  OD2      102.9330   32.8130   81.1920 O.co2 213  ASP213     -0.2456
     83  N         98.3570   34.1430   81.4490 N.am  214  ALA214     -0.1977
     84  CA        97.4380   33.9200   82.5640 C.3   214  ALA214      0.1597
     85  C         98.1070   33.3080   83.7900 C.2   214  ALA214      0.2287
     86  O         97.8780   33.7820   84.9040 O.2   214  ALA214     -0.2864
     87  CB        96.2610   33.0550   82.1150 C.3   214  ALA214      0.0319
     88  N        100.6480   32.7540   86.6700 N.3   216  GLU216     -0.1245
     89  CA       101.4790   33.7430   87.3580 C.3   216  GLU216      0.1567
     90  C        102.5720   33.0910   88.1980 C.2   216  GLU216      0.2260
     91  O        102.5890   31.8700   88.3880 O.2   216  GLU216     -0.2867
     92  CB       100.6110   34.6400   88.2420 C.3   216  GLU216      0.0388
     93  CG        99.3280   35.1440   87.6020 C.3   216  GLU216      0.1160
     94  CD        99.5480   36.0790   86.4200 C.2   216  GLU216      0.3649
     95  OE1       98.6130   36.8560   86.1070 O.co2 216  GLU216     -0.2457
     96  OE2      100.6320   36.0440   85.7900 O.co2 216  GLU216     -0.2457
@<TRIPOS>BOND
     1    74    72    1
     2    72    73    1
     3    72    71    2
     4    71    70    1
     5    70    69    1
     6    34    32   ar
     7    34    35   ar
     8    32    30   ar
     9    37    38    1
    10    38    39    1
    11    38    41    1
    12    69    68    1
    13    39    40    2
    14    36    35    1
    15    55    53    1
    16    35    33   ar
    17    30    29    1
    18    30    31   ar
    19    27    26    1
    20    27    28    2
    21    29    26    1
    22    26    25    1
    23    42    41    1
    24    42    43    1
    25    68    65    1
    26    54    53    1
    27    53    52    2
    28    33    31   ar
    29    67    66    2
    30    65    66    1
    31    65    64    1
    32    43    44    1
    33    66    75   am
    34    52    51    1
    35    79    76    1
    36    79    80    1
    37    75    76    1
    38    76    77    1
    39    64    58   am
    40    51    50    1
    41    80    82   ar
    42    80    81   ar
    43    59    58    2
    44    58    57    1
    45    83    77   am
    46    83    84    1
    47    77    78    2
    48    50    49    1
    49    87    84    1
    50    57    56    1
    51    57    60    1
    52    84    85    1
    53    16    14   ar
    54    16    17   ar
    55    18    17    1
    56    14    12   ar
    57    56    47   am
    58    49    46    1
    59    17    15   ar
    60    60    61    1
    61    62    61    2
    62    47    48    2
    63    47    46    1
    64    61    63   am
    65    85    86    2
    66    12    11    1
    67    12    13   ar
    68    15    13   ar
    69    46    45    1
    70    11     8    1
    71    23    20    1
    72    23    24    1
    73    96    94   ar
    74    19     9   am
    75    19    20    1
    76     8     9    1
    77     8     7    1
    78     9    10    2
    79    20    21    1
    80    95    94   ar
    81     7     3   am
    82    94    93    1
    83    88    89    1
    84    21    22    2
    85    89    90    1
    86    89    92    1
    87     5     6    1
    88     5     2    1
    89    93    92    1
    90     3     2    1
    91     3     4    2
    92     2     1    1
    93    90    91    2
