@<TRIPOS>MOLECULE
tmp/2vc2A00.pdb
 88 87 0 0 0
SMALL
GASTEIGER

@<TRIPOS>ATOM
      1  N         90.1920   38.3240   69.3600 N.3   159  ASP159     -0.1225
      2  CA        90.3590   37.4660   70.5390 C.3   159  ASP159      0.1805
      3  C         91.5950   36.5720   70.4250 C.2   159  ASP159      0.2598
      4  O         91.5470   35.3790   70.7070 O.2   159  ASP159     -0.2718
      5  CB        89.0950   36.6280   70.7820 C.3   159  ASP159      0.1424
      6  CG        87.8550   37.4900   71.0210 C.2   159  ASP159      0.3668
      7  OD1       87.9570   38.4820   71.7770 O.co2 159  ASP159     -0.2456
      8  OD2       86.7780   37.1740   70.4580 O.co2 159  ASP159     -0.2456
      9  N         92.6950   37.1710   69.9830 N.am  160  PHE160     -0.1962
     10  CA        93.9950   36.5120   69.9360 C.3   160  PHE160      0.1771
     11  C         94.0420   35.2100   69.1360 C.2   160  PHE160      0.2620
     12  O         94.8490   34.3230   69.4110 O.2   160  PHE160     -0.2715
     13  CB        94.4850   36.2900   71.3570 C.3   160  PHE160      0.0574
     14  CG        94.5410   37.5460   72.1580 C.ar  160  PHE160     -0.0200
     15  CD1       93.5780   37.8220   73.1100 C.ar  160  PHE160     -0.0042
     16  CD2       95.5480   38.4710   71.9370 C.ar  160  PHE160     -0.0042
     17  CE1       93.6340   38.9790   73.8440 C.ar  160  PHE160     -0.0003
     18  CE2       95.6030   39.6310   72.6630 C.ar  160  PHE160     -0.0003
     19  CZ        94.6460   39.8870   73.6180 C.ar  160  PHE160     -0.0000
     20  N         93.1970   35.1120   68.1200 N.am  161  SER161     -0.1950
     21  CA        93.2120   33.9520   67.2520 C.3   161  SER161      0.1924
     22  C         94.4870   33.9660   66.4170 C.2   161  SER161      0.2314
     23  O         94.9330   35.0190   65.9740 O.2   161  SER161     -0.2863
     24  CB        91.9830   33.9520   66.3450 C.3   161  SER161      0.2116
     25  OG        92.0110   35.0730   65.4780 O.3   161  SER161     -0.2180
     26  N        100.2590   30.2180   69.5120 N.3   189  TYR189     -0.1227
     27  CA        98.8290   30.3780   69.7700 C.3   189  TYR189      0.1736
     28  C         98.5440   30.7050   71.2330 C.2   189  TYR189      0.2595
     29  O         97.7680   30.0180   71.9050 O.2   189  TYR189     -0.2718
     30  CB        98.0840   29.1200   69.3350 C.3   189  TYR189      0.0548
     31  CG        98.2770   28.7830   67.8750 C.ar  189  TYR189     -0.0200
     32  CD1       98.1060   29.7500   66.8900 C.ar  189  TYR189     -0.0009
     33  CD2       98.6090   27.4930   67.4720 C.ar  189  TYR189     -0.0009
     34  CE1       98.2740   29.4440   65.5510 C.ar  189  TYR189      0.0417
     35  CE2       98.7740   27.1810   66.1240 C.ar  189  TYR189      0.0417
     36  CZ        98.6020   28.1640   65.1740 C.ar  189  TYR189      0.1957
     37  OH        98.7550   27.8770   63.8420 O.3   189  TYR189     -0.2866
     38  N         99.1860   31.7750   71.6990 N.am  190  TYR190     -0.1976
     39  CA        99.1090   32.2350   73.0850 C.3   190  TYR190      0.1639
     40  C         99.3640   31.0910   74.0630 C.2   190  TYR190      0.2290
     41  O         98.5810   30.8480   74.9780 O.2   190  TYR190     -0.2864
     42  CB        97.7730   32.9400   73.3590 C.3   190  TYR190      0.0560
     43  CG        97.9260   34.2240   74.1520 C.ar  190  TYR190     -0.0198
     44  CD1       98.2120   34.1940   75.5090 C.ar  190  TYR190     -0.0009
     45  CD2       97.7910   35.4690   73.5400 C.ar  190  TYR190     -0.0009
     46  CE1       98.3580   35.3670   76.2370 C.ar  190  TYR190      0.0417
     47  CE2       97.9350   36.6440   74.2600 C.ar  190  TYR190      0.0417
     48  CZ        98.2190   36.5870   75.6090 C.ar  190  TYR190      0.1957
     49  OH        98.3600   37.7430   76.3420 O.3   190  TYR190     -0.2866
     50  N         99.3550   27.8060   73.7710 N.3   192  LEU192     -0.1245
     51  CA        98.8220   26.4640   73.5060 C.3   192  LEU192      0.1561
     52  C         99.9520   25.5620   73.0420 C.2   192  LEU192      0.2260
     53  O        100.1670   24.4790   73.5940 O.2   192  LEU192     -0.2867
     54  CB        97.7440   26.4810   72.4140 C.3   192  LEU192      0.0270
     55  CG        96.2830   26.4620   72.8550 C.3   192  LEU192      0.0019
     56  CD1       95.9310   27.7550   73.5840 C.3   192  LEU192      0.0001
     57  CD2       95.3800   26.2470   71.6480 C.3   192  LEU192      0.0001
     58  N         95.2800   26.1940   65.6780 N.3   224  ASP224     -0.1225
     59  CA        94.8500   26.9060   66.8700 C.3   224  ASP224      0.1805
     60  C         93.5760   26.2260   67.3620 C.2   224  ASP224      0.2598
     61  O         92.8530   25.6000   66.5800 O.2   224  ASP224     -0.2718
     62  CB        94.5890   28.3910   66.5510 C.3   224  ASP224      0.1424
     63  CG        94.4250   29.2580   67.8040 C.2   224  ASP224      0.3668
     64  OD1       94.5600   28.7490   68.9350 O.co2 224  ASP224     -0.2456
     65  OD2       94.1610   30.4650   67.6580 O.co2 224  ASP224     -0.2456
     66  N         93.3150   26.3580   68.6590 N.am  225  SER225     -0.1938
     67  CA        92.1510   25.7580   69.2880 C.3   225  SER225      0.2055
     68  C         91.6180   26.6540   70.3960 C.2   225  SER225      0.2643
     69  O         92.3500   27.4610   70.9600 O.2   225  SER225     -0.2714
     70  CB        92.5220   24.3940   69.8670 C.3   225  SER225      0.2130
     71  OG        91.5570   23.9570   70.8070 O.3   225  SER225     -0.2179
     72  N         90.3380   26.4900   70.7060 N.am  226  SER226     -0.1949
     73  CA        89.6990   27.2190   71.7920 C.3   226  SER226      0.1924
     74  C         89.2570   26.2780   72.9250 C.2   226  SER226      0.2314
     75  O         88.5120   26.6840   73.8190 O.2   226  SER226     -0.2863
     76  CB        88.5100   27.9860   71.2350 C.3   226  SER226      0.2116
     77  OG        87.7120   27.1300   70.4400 O.3   226  SER226     -0.2180
     78  N         95.0240   25.0280   76.7100 N.3   231  PHE231     -0.1241
     79  CA        95.5230   26.3200   77.1900 C.3   231  PHE231      0.1605
     80  C         96.7670   26.1590   78.0600 C.2   231  PHE231      0.2264
     81  O         96.7740   25.3420   78.9760 O.2   231  PHE231     -0.2867
     82  CB        94.4480   27.0380   78.0120 C.3   231  PHE231      0.0534
     83  CG        93.3080   27.6090   77.2010 C.ar  231  PHE231     -0.0203
     84  CD1       92.3510   28.4000   77.8300 C.ar  231  PHE231     -0.0042
     85  CD2       93.1890   27.3860   75.8310 C.ar  231  PHE231     -0.0042
     86  CE1       91.2930   28.9420   77.1240 C.ar  231  PHE231     -0.0003
     87  CE2       92.1310   27.9300   75.1180 C.ar  231  PHE231     -0.0003
     88  CZ        91.1800   28.7080   75.7690 C.ar  231  PHE231     -0.0000
@<TRIPOS>BOND
     1    37    36    1
     2    36    34   ar
     3    36    35   ar
     4    25    24    1
     5    34    32   ar
     6    58    59    1
     7    23    22    2
     8    35    33   ar
     9    24    21    1
    10    22    21    1
    11    62    59    1
    12    62    63    1
    13    61    60    2
    14    59    60    1
    15    32    31   ar
    16    21    20    1
    17    60    66   am
    18    33    31   ar
    19    65    63   ar
    20    63    64   ar
    21    31    30    1
    22    20    11   am
    23    66    67    1
    24    11    12    2
    25    11    10    1
    26    67    70    1
    27    67    68    1
    28    30    27    1
    29     1     2    1
    30    26    27    1
    31    27    28    1
    32    70    71    1
    33    10     9    1
    34    10    13    1
    35     9     3   am
    36    68    72   am
    37    68    69    2
    38     3     2    1
    39     3     4    2
    40    77    76    1
    41     8     6   ar
    42     2     5    1
    43    72    73    1
    44     5     6    1
    45     6     7   ar
    46    28    38   am
    47    28    29    2
    48    76    73    1
    49    13    14    1
    50    57    55    1
    51    38    39    1
    52    73    74    1
    53    16    14   ar
    54    16    18   ar
    55    14    15   ar
    56    54    55    1
    57    54    51    1
    58    18    19   ar
    59    55    56    1
    60    74    75    2
    61    52    51    1
    62    52    53    2
    63    39    42    1
    64    39    40    1
    65    15    17   ar
    66    42    43    1
    67    51    50    1
    68    45    43   ar
    69    45    47   ar
    70    19    17   ar
    71    40    41    2
    72    43    44   ar
    73    47    48   ar
    74    87    88   ar
    75    87    85   ar
    76    44    46   ar
    77    48    46   ar
    78    48    49    1
    79    88    86   ar
    80    85    83   ar
    81    78    79    1
    82    86    84   ar
    83    79    82    1
    84    79    80    1
    85    83    84   ar
    86    83    82    1
    87    80    81    2
