@<TRIPOS>MOLECULE
tmp/2vc9A00.pdb
 205 200 0 0 0
SMALL
GASTEIGER

@<TRIPOS>ATOM
      1  N         25.6840   -6.5910    1.5180 N.3   274  ASN274     -0.1240
      2  CA        25.1810   -6.5630    2.8870 C.3   274  ASN274      0.1653
      3  C         24.9790   -8.0190    3.2880 C.2   274  ASN274      0.2266
      4  O         24.9160   -8.8900    2.4160 O.2   274  ASN274     -0.2867
      5  CB        23.8340   -5.8290    2.9100 C.3   274  ASN274      0.1155
      6  CG        23.4330   -5.3400    4.2970 C.2   274  ASN274      0.2627
      7  OD1       23.2360   -6.1340    5.2280 O.2   274  ASN274     -0.2716
      8  ND2       23.2670   -4.0230    4.4280 N.am  274  ASN274     -0.0877
      9  N         22.1840   -8.7920    4.5060 N.3   276  CYS276     -0.1235
     10  CA        20.7930   -8.8740    4.0390 C.3   276  CYS276      0.1677
     11  C         20.6460   -9.2920    2.5670 C.2   276  CYS276      0.2270
     12  O         19.6000   -9.8400    2.1920 O.2   276  CYS276     -0.2867
     13  CB        20.0450   -7.5630    4.3010 C.3   276  CYS276      0.0956
     14  SG        20.0000   -7.0390    6.0430 S.3   276  CYS276     -0.0801
     15  N         17.3190  -11.2210    1.0250 N.3   280  TYR280     -0.1241
     16  CA        16.3890  -10.5460    0.1070 C.3   280  TYR280      0.1605
     17  C         16.5890  -10.8480   -1.3890 C.2   280  TYR280      0.2264
     18  O         15.6150  -10.8380   -2.1440 O.2   280  TYR280     -0.2867
     19  CB        16.3760   -9.0320    0.3410 C.3   280  TYR280      0.0534
     20  CG        15.8940   -8.6270    1.7230 C.ar  280  TYR280     -0.0201
     21  CD1       14.7170   -9.1630    2.2610 C.ar  280  TYR280     -0.0009
     22  CD2       16.6080   -7.7090    2.4910 C.ar  280  TYR280     -0.0009
     23  CE1       14.2740   -8.7950    3.5220 C.ar  280  TYR280      0.0417
     24  CE2       16.1720   -7.3430    3.7460 C.ar  280  TYR280      0.0417
     25  CZ        15.0000   -7.8850    4.2540 C.ar  280  TYR280      0.1957
     26  OH        14.5570   -7.5220    5.5030 O.3   280  TYR280     -0.2866
     27  N         20.0490  -12.4610    9.1510 N.3   341  TRP341     -0.1241
     28  CA        19.7250  -12.1350   10.5400 C.3   341  TRP341      0.1605
     29  C         20.1620  -13.2040   11.5220 C.2   341  TRP341      0.2264
     30  O         20.3100  -12.9370   12.7100 O.2   341  TRP341     -0.2867
     31  CB        18.2520  -11.7250   10.6530 C.3   341  TRP341      0.0550
     32  CG        17.9970  -10.7000    9.6140 C.ar  341  TRP341      0.0003
     33  CD1       18.3570   -9.3920    9.6650 C.ar  341  TRP341      0.0946
     34  CD2       17.4400  -10.9130    8.3110 C.ar  341  TRP341      0.0152
     35  NE1       18.0300   -8.7630    8.4940 N.ar  341  TRP341     -0.2442
     36  CE2       17.4650   -9.6760    7.6430 C.ar  341  TRP341      0.0810
     37  CE3       16.9070  -12.0290    7.6490 C.ar  341  TRP341      0.0012
     38  CZ2       16.9670   -9.5150    6.3470 C.ar  341  TRP341      0.0191
     39  CZ3       16.4060  -11.8630    6.3640 C.ar  341  TRP341      0.0001
     40  CH2       16.4410  -10.6180    5.7300 C.ar  341  TRP341      0.0015
     41  N         23.9680  -12.3150   11.7170 N.3   344  MET344     -0.1245
     42  CA        24.0730  -11.0340   12.4400 C.3   344  MET344      0.1570
     43  C         23.6050  -11.0980   13.8940 C.2   344  MET344      0.2261
     44  O         23.4830  -10.0690   14.5530 O.2   344  MET344     -0.2867
     45  CB        23.3820   -9.8990   11.6780 C.3   344  MET344      0.0387
     46  CG        24.1860   -9.4490   10.4630 C.3   344  MET344      0.0595
     47  SD        23.6160   -7.9920    9.5840 S.3   344  MET344     -0.1393
     48  CE        21.9680   -8.4570    9.0470 C.3   344  MET344      0.0692
     49  N         20.7650  -11.9180   15.3280 N.3   346  ASN346     -0.1240
     50  CA        19.4650  -11.2890   15.5730 C.3   346  ASN346      0.1653
     51  C         18.3070  -12.2690   15.8150 C.2   346  ASN346      0.2266
     52  O         17.3730  -11.9390   16.5390 O.2   346  ASN346     -0.2867
     53  CB        19.1020  -10.3570   14.4110 C.3   346  ASN346      0.1155
     54  CG        20.0400   -9.1560   14.2940 C.2   346  ASN346      0.2627
     55  OD1       20.4310   -8.5420   15.2930 O.2   346  ASN346     -0.2716
     56  ND2       20.3680   -8.7950   13.0680 N.am  346  ASN346     -0.0877
     57  N         15.0460   -9.2080   19.2530 N.3   408  TRP408     -0.1241
     58  CA        15.1740   -8.4020   18.0560 C.3   408  TRP408      0.1605
     59  C         13.9160   -8.6760   17.2530 C.2   408  TRP408      0.2264
     60  O         13.6800   -9.8090   16.8250 O.2   408  TRP408     -0.2867
     61  CB        16.4350   -8.7800   17.2810 C.3   408  TRP408      0.0550
     62  CG        16.6120   -8.0570   15.9890 C.ar  408  TRP408      0.0003
     63  CD1       17.2330   -6.8470   15.7920 C.ar  408  TRP408      0.0946
     64  CD2       16.1760   -8.4990   14.6970 C.ar  408  TRP408      0.0152
     65  NE1       17.2040   -6.5110   14.4590 N.ar  408  TRP408     -0.2442
     66  CE2       16.5640   -7.5060   13.7620 C.ar  408  TRP408      0.0810
     67  CE3       15.4880   -9.6330   14.2380 C.ar  408  TRP408      0.0012
     68  CZ2       16.2840   -7.6160   12.3920 C.ar  408  TRP408      0.0191
     69  CZ3       15.2220   -9.7470   12.8640 C.ar  408  TRP408      0.0001
     70  CH2       15.6200   -8.7400   11.9640 C.ar  408  TRP408      0.0015
     71  N         24.8600   -6.0890   16.8650 N.3   457  HIS457     -0.1226
     72  CA        24.2190   -5.5100   15.6990 C.3   457  HIS457      0.1752
     73  C         22.7320   -5.2920   15.9840 C.2   457  HIS457      0.2595
     74  O         21.9890   -6.2440   16.2070 O.2   457  HIS457     -0.2718
     75  CB        24.4330   -6.3850   14.4550 C.3   457  HIS457      0.0759
     76  CG        23.8930   -5.7830   13.1940 C.ar  457  HIS457      0.0818
     77  ND1       24.6220   -4.9150   12.4110 N.ar  457  HIS457     -0.2268
     78  CD2       22.6870   -5.9110   12.5900 C.ar  457  HIS457      0.1154
     79  CE1       23.8950   -4.5410   11.3730 C.ar  457  HIS457      0.1986
     80  NE2       22.7180   -5.1340   11.4560 N.ar  457  HIS457     -0.2212
     81  N         22.3270   -4.0220   15.9740 N.am  458  GLU458     -0.1979
     82  CA        20.9410   -3.5950   16.2200 C.3   458  GLU458      0.1602
     83  C         20.3550   -4.1050   17.5380 C.2   458  GLU458      0.2287
     84  O         19.1900   -4.5150   17.6040 O.2   458  GLU458     -0.2864
     85  CB        20.0240   -3.9250   15.0390 C.3   458  GLU458      0.0415
     86  CG        20.2790   -3.0970   13.7940 C.3   458  GLU458      0.1163
     87  CD        19.1810   -3.2720   12.7630 C.2   458  GLU458      0.3649
     88  OE1       18.4460   -4.2910   12.8420 O.co2 458  GLU458     -0.2457
     89  OE2       19.0490   -2.3940   11.8760 O.co2 458  GLU458     -0.2457
     90  N         30.9670   -3.7770   10.3020 N.3   490  GLN490     -0.1245
     91  CA        29.9430   -2.8570    9.7900 C.3   490  GLN490      0.1566
     92  C         29.8160   -1.6440   10.7030 C.2   490  GLN490      0.2260
     93  O         29.8970   -1.7760   11.9220 O.2   490  GLN490     -0.2867
     94  CB        28.5760   -3.5340    9.7210 C.3   490  GLN490      0.0367
     95  CG        28.4020   -4.6210    8.7060 C.3   490  GLN490      0.0905
     96  CD        26.9740   -5.1280    8.7080 C.2   490  GLN490      0.2608
     97  OE1       26.0690   -4.4620    8.2070 O.2   490  GLN490     -0.2717
     98  NE2       26.7600   -6.3040    9.2970 N.am  490  GLN490     -0.0878
     99  N         26.9630    0.7380   11.4990 N.3   492  TRP492     -0.1241
    100  CA        25.5360    0.9810   11.3270 C.3   492  TRP492      0.1605
    101  C         24.9800    1.7870   12.4950 C.2   492  TRP492      0.2264
    102  O         25.0380    1.3560   13.6440 O.2   492  TRP492     -0.2867
    103  CB        24.7730   -0.3400   11.0900 C.3   492  TRP492      0.0550
    104  CG        23.2710   -0.2020   10.9190 C.ar  492  TRP492      0.0003
    105  CD1       22.3150   -0.8330   11.6540 C.ar  492  TRP492      0.0946
    106  CD2       22.5660    0.6070    9.9550 C.ar  492  TRP492      0.0152
    107  NE1       21.0570   -0.4690   11.2220 N.ar  492  TRP492     -0.2442
    108  CE2       21.1810    0.4190   10.1860 C.ar  492  TRP492      0.0810
    109  CE3       22.9670    1.4790    8.9310 C.ar  492  TRP492      0.0012
    110  CZ2       20.1870    1.0670    9.4200 C.ar  492  TRP492      0.0191
    111  CZ3       21.9710    2.1300    8.1610 C.ar  492  TRP492      0.0001
    112  CH2       20.6050    1.9170    8.4180 C.ar  492  TRP492      0.0015
    113  N         28.4750    2.0780    6.2100 N.3   515  LEU515     -0.1245
    114  CA        27.4110    1.3730    5.4890 C.3   515  LEU515      0.1561
    115  C         26.5610    2.2390    4.5800 C.2   515  LEU515      0.2260
    116  O         26.1230    1.7750    3.5310 O.2   515  LEU515     -0.2867
    117  CB        26.5060    0.6370    6.4780 C.3   515  LEU515      0.0270
    118  CG        26.0910   -0.7980    6.1520 C.3   515  LEU515      0.0019
    119  CD1       27.2700   -1.7740    6.2580 C.3   515  LEU515      0.0001
    120  CD2       24.9480   -1.2400    7.0490 C.3   515  LEU515      0.0001
    121  N         24.6150    2.1710    0.2260 N.3   538  LEU538     -0.1245
    122  CA        23.6360    1.1810    0.6620 C.3   538  LEU538      0.1561
    123  C         22.4690    1.1490   -0.3300 C.2   538  LEU538      0.2260
    124  O         22.1780    0.1190   -0.9160 O.2   538  LEU538     -0.2867
    125  CB        23.1640    1.5060    2.0900 C.3   538  LEU538      0.0270
    126  CG        22.5950    0.4280    3.0290 C.3   538  LEU538      0.0019
    127  CD1       22.4290    0.9910    4.4520 C.3   538  LEU538      0.0001
    128  CD2       21.2850   -0.1590    2.5040 C.3   538  LEU538      0.0001
    129  N         16.7890   -0.7830    0.5350 N.3   541  PHE541     -0.1241
    130  CA        16.3720   -1.3990    1.7810 C.3   541  PHE541      0.1605
    131  C         15.2870   -2.4350    1.5220 C.2   541  PHE541      0.2264
    132  O         14.2660   -2.1450    0.8740 O.2   541  PHE541     -0.2867
    133  CB        15.8890   -0.3420    2.7680 C.3   541  PHE541      0.0534
    134  CG        16.9940    0.4810    3.3710 C.ar  541  PHE541     -0.0203
    135  CD1       17.3920    0.2750    4.6820 C.ar  541  PHE541     -0.0042
    136  CD2       17.6320    1.4710    2.6300 C.ar  541  PHE541     -0.0042
    137  CE1       18.4230    1.0550    5.2560 C.ar  541  PHE541     -0.0003
    138  CE2       18.6570    2.2430    3.1920 C.ar  541  PHE541     -0.0003
    139  CZ        19.0380    2.0330    4.5140 C.ar  541  PHE541     -0.0000
    140  N         20.6710   -4.0920    0.6220 N.3   576  GLU576     -0.1245
    141  CA        19.9830   -5.1800    1.2830 C.3   576  GLU576      0.1567
    142  C         19.4110   -6.1410    0.2440 C.2   576  GLU576      0.2260
    143  O         19.1280   -7.3010    0.5410 O.2   576  GLU576     -0.2867
    144  CB        18.9120   -4.6300    2.2160 C.3   576  GLU576      0.0388
    145  CG        19.4970   -3.7810    3.3410 C.3   576  GLU576      0.1160
    146  CD        18.4830   -3.3370    4.4040 C.2   576  GLU576      0.3649
    147  OE1       17.2510   -3.5630    4.2660 O.co2 576  GLU576     -0.2457
    148  OE2       18.9410   -2.7330    5.3880 O.co2 576  GLU576     -0.2457
    149  N         15.2300    5.8660    4.1860 N.3   639  GLN639     -0.1245
    150  CA        15.6930    4.5000    3.9800 C.3   639  GLN639      0.1566
    151  C         15.0540    3.8550    2.7480 C.2   639  GLN639      0.2260
    152  O         13.9610    3.2890    2.8220 O.2   639  GLN639     -0.2867
    153  CB        15.4670    3.6540    5.2400 C.3   639  GLN639      0.0367
    154  CG        16.3280    4.0660    6.4380 C.3   639  GLN639      0.0905
    155  CD        16.3340    3.0330    7.5560 C.2   639  GLN639      0.2608
    156  OE1       15.7210    1.9670    7.4490 O.2   639  GLN639     -0.2717
    157  NE2       17.0440    3.3420    8.6310 N.am  639  GLN639     -0.0878
    158  N         10.1770    1.5680    9.1250 N.3   660  TRP660     -0.1241
    159  CA        11.2230    2.5880    8.9980 C.3   660  TRP660      0.1605
    160  C         11.2460    3.2140    7.6010 C.2   660  TRP660      0.2264
    161  O         12.1480    3.9890    7.2720 O.2   660  TRP660     -0.2867
    162  CB        12.5920    2.0070    9.3870 C.3   660  TRP660      0.0550
    163  CG        12.5640    1.3660   10.7340 C.ar  660  TRP660      0.0003
    164  CD1       12.7930    1.9730   11.9350 C.ar  660  TRP660      0.0946
    165  CD2       12.2460   -0.0030   11.0280 C.ar  660  TRP660      0.0152
    166  NE1       12.6520    1.0640   12.9610 N.ar  660  TRP660     -0.2442
    167  CE2       12.3130   -0.1550   12.4320 C.ar  660  TRP660      0.0810
    168  CE3       11.9240   -1.1190   10.2420 C.ar  660  TRP660      0.0012
    169  CZ2       12.0680   -1.3810   13.0680 C.ar  660  TRP660      0.0191
    170  CZ3       11.6740   -2.3370   10.8750 C.ar  660  TRP660      0.0001
    171  CH2       11.7490   -2.4550   12.2760 C.ar  660  TRP660      0.0015
    172  N          7.1020  -11.2450    6.9910 N.3   786  TRP786     -0.1241
    173  CA         8.4870  -11.3920    7.4660 C.3   786  TRP786      0.1605
    174  C          8.6560  -12.5510    8.4650 C.2   786  TRP786      0.2264
    175  O          9.3110  -13.5530    8.1510 O.2   786  TRP786     -0.2867
    176  CB         9.0270  -10.0690    8.0170 C.3   786  TRP786      0.0550
    177  CG        10.5080   -9.8550    7.7860 C.ar  786  TRP786      0.0003
    178  CD1       11.0860   -9.0180    6.8690 C.ar  786  TRP786      0.0946
    179  CD2       11.5920  -10.4820    8.4930 C.ar  786  TRP786      0.0152
    180  NE1       12.4560   -9.0900    6.9600 N.ar  786  TRP786     -0.2442
    181  CE2       12.7900   -9.9810    7.9460 C.ar  786  TRP786      0.0810
    182  CE3       11.6620  -11.4230    9.5310 C.ar  786  TRP786      0.0012
    183  CZ2       14.0440  -10.3840    8.4060 C.ar  786  TRP786      0.0191
    184  CZ3       12.9110  -11.8270    9.9830 C.ar  786  TRP786      0.0001
    185  CH2       14.0830  -11.3070    9.4240 C.ar  786  TRP786      0.0015
    186  N          8.0830   -5.5860   11.6540 N.3   797  LEU797     -0.1245
    187  CA         8.6290   -6.0990   10.3750 C.3   797  LEU797      0.1561
    188  C          7.6250   -6.3690    9.2530 C.2   797  LEU797      0.2260
    189  O          8.0180   -6.7800    8.1650 O.2   797  LEU797     -0.2867
    190  CB         9.4640   -7.3630   10.6120 C.3   797  LEU797      0.0270
    191  CG        10.7980   -7.2440   11.3590 C.3   797  LEU797      0.0019
    192  CD1       11.2840   -8.6270   11.6990 C.3   797  LEU797      0.0001
    193  CD2       11.8410   -6.4990   10.5400 C.3   797  LEU797      0.0001
    194  N          8.2100   -5.2840    5.4070 N.3   800  TYR800     -0.1241
    195  CA         9.5060   -4.6160    5.3650 C.3   800  TYR800      0.1605
    196  C         10.1130   -4.8320    3.9790 C.2   800  TYR800      0.2264
    197  O         10.7510   -3.9440    3.4210 O.2   800  TYR800     -0.2867
    198  CB        10.4570   -5.1210    6.4780 C.3   800  TYR800      0.0534
    199  CG        11.8110   -4.4240    6.4330 C.ar  800  TYR800     -0.0201
    200  CD1       12.0570   -3.2780    7.1850 C.ar  800  TYR800     -0.0009
    201  CD2       12.8240   -4.8840    5.5920 C.ar  800  TYR800     -0.0009
    202  CE1       13.2910   -2.6200    7.1140 C.ar  800  TYR800      0.0417
    203  CE2       14.0470   -4.2450    5.5120 C.ar  800  TYR800      0.0417
    204  CZ        14.2780   -3.1110    6.2710 C.ar  800  TYR800      0.1957
    205  OH        15.5000   -2.4780    6.1790 O.3   800  TYR800     -0.2866
@<TRIPOS>BOND
     1    18    17    2
     2    17    16    1
     3   124   123    2
     4   123   122    1
     5    16    19    1
     6    16    15    1
     7   121   122    1
     8   142   143    2
     9   142   141    1
    10    19    20    1
    11   129   130    1
    12   140   141    1
    13   122   125    1
    14   132   131    2
    15   141   144    1
    16     1     2    1
    17   131   130    1
    18    20    21   ar
    19    20    22   ar
    20   130   133    1
    21   125   126    1
    22    12    11    2
    23   144   145    1
    24    21    23   ar
    25     4     3    2
    26    22    24   ar
    27   128   126    1
    28    11    10    1
    29   136   138   ar
    30   136   134   ar
    31   151   152    2
    32   151   150    1
    33   133   134    1
    34     2     5    1
    35     2     3    1
    36     5     6    1
    37   126   127    1
    38   138   139   ar
    39   145   146    1
    40   134   135   ar
    41   197   196    2
    42    23    25   ar
    43   116   115    2
    44    24    25   ar
    45   196   195    1
    46   150   149    1
    47   150   153    1
    48    10    13    1
    49    10     9    1
    50    25    26    1
    51   147   146   ar
    52     6     8   am
    53     6     7    2
    54    13    14    1
    55   146   148   ar
    56   139   137   ar
    57   115   114    1
    58   135   137   ar
    59   153   154    1
    60   195   194    1
    61   195   198    1
    62   114   113    1
    63   114   117    1
    64   203   201   ar
    65   203   204   ar
    66   201   199   ar
    67    40    38   ar
    68    40    39   ar
    69   118   119    1
    70   118   117    1
    71   118   120    1
    72   205   204    1
    73   204   202   ar
    74    38    36   ar
    75    39    37   ar
    76   199   198    1
    77   199   200   ar
    78   154   155    1
    79   178   180   ar
    80   178   177   ar
    81   180   181   ar
    82   172   173    1
    83   202   200   ar
    84   161   160    2
    85   156   155    2
    86   173   176    1
    87   173   174    1
    88   155   157   am
    89   160   159    1
    90    36    34   ar
    91    36    35   ar
    92    37    34   ar
    93   177   176    1
    94   177   179   ar
    95   181   183   ar
    96   181   179   ar
    97   175   174    2
    98   111   112   ar
    99   111   109   ar
   100   189   188    2
   101    97    96    2
   102    34    32   ar
   103   183   185   ar
   104   112   110   ar
   105   179   182   ar
   106    35    33   ar
   107    95    96    1
   108    95    94    1
   109    96    98   am
   110   109   106   ar
   111   159   158    1
   112   159   162    1
   113    48    47    1
   114    27    28    1
   115   188   187    1
   116   162   163    1
   117   110   108   ar
   118   185   184   ar
   119   182   184   ar
   120    47    46    1
   121    32    33   ar
   122    32    31    1
   123    94    91    1
   124    91    90    1
   125    91    92    1
   126   106   108   ar
   127   106   104   ar
   128   108   107   ar
   129   168   170   ar
   130   168   165   ar
   131   187   190    1
   132   187   186    1
   133    46    45    1
   134    28    31    1
   135    28    29    1
   136   193   191    1
   137   190   191    1
   138    92    93    2
   139   163   165   ar
   140   163   164   ar
   141   170   171   ar
   142   104   103    1
   143   104   105   ar
   144   165   167   ar
   145   103   100    1
   146   107   105   ar
   147   100    99    1
   148   100   101    1
   149   191   192    1
   150    79    80   ar
   151    79    77   ar
   152    80    78   ar
   153    29    30    2
   154    45    42    1
   155    41    42    1
   156    89    87   ar
   157   164   166   ar
   158    70    68   ar
   159    70    69   ar
   160   171   169   ar
   161    68    66   ar
   162    77    76   ar
   163   167   166   ar
   164   167   169   ar
   165    42    43    1
   166   101   102    2
   167    78    76   ar
   168    87    88   ar
   169    87    86    1
   170    69    67   ar
   171    56    54   am
   172    76    75    1
   173    66    65   ar
   174    66    64   ar
   175    86    85    1
   176    43    44    2
   177    67    64   ar
   178    54    53    1
   179    54    55    2
   180    53    50    1
   181    75    72    1
   182    65    63   ar
   183    64    62   ar
   184    85    82    1
   185    49    50    1
   186    50    51    1
   187    72    73    1
   188    72    71    1
   189    63    62   ar
   190    51    52    2
   191    81    73   am
   192    81    82    1
   193    73    74    2
   194    62    61    1
   195    82    83    1
   196    60    59    2
   197    59    58    1
   198    61    58    1
   199    83    84    2
   200    58    57    1
