@<TRIPOS>MOLECULE
tmp/2vcaA00.pdb
 211 206 0 0 0
SMALL
GASTEIGER

@<TRIPOS>ATOM
      1  N        -18.5850  -19.0260    1.7450 N.3   274  ASN274     -0.1240
      2  CA       -18.2660  -18.6360    3.1130 C.3   274  ASN274      0.1653
      3  C        -19.3670  -17.6690    3.5430 C.2   274  ASN274      0.2266
      4  O        -19.9730  -17.0100    2.6920 O.2   274  ASN274     -0.2867
      5  CB       -16.9220  -17.9000    3.0970 C.3   274  ASN274      0.1155
      6  CG       -16.2470  -17.8200    4.4580 C.2   274  ASN274      0.2627
      7  OD1      -16.8040  -17.3000    5.4240 O.2   274  ASN274     -0.2716
      8  ND2      -15.0150  -18.3040    4.5220 N.am  274  ASN274     -0.0877
      9  N        -18.6170  -15.0220    4.7920 N.3   276  CYS276     -0.1235
     10  CA       -17.9420  -13.8170    4.3150 C.3   276  CYS276      0.1677
     11  C        -18.2510  -13.4510    2.8660 C.2   276  CYS276      0.2270
     12  O        -18.2470  -12.2660    2.5250 O.2   276  CYS276     -0.2867
     13  CB       -16.4320  -13.9290    4.5200 C.3   276  CYS276      0.0956
     14  SG       -15.9080  -14.0410    6.2400 S.3   276  CYS276     -0.0801
     15  N        -18.2160   -9.5850    1.4190 N.3   280  TYR280     -0.1241
     16  CA       -17.1250   -9.0930    0.5570 C.3   280  TYR280      0.1605
     17  C        -17.4590   -9.0670   -0.9470 C.2   280  TYR280      0.2264
     18  O        -16.8940   -8.2650   -1.6940 O.2   280  TYR280     -0.2867
     19  CB       -15.8110   -9.8470    0.8080 C.3   280  TYR280      0.0534
     20  CG       -15.2220   -9.6500    2.1970 C.ar  280  TYR280     -0.0201
     21  CD1      -15.0450   -8.3720    2.7340 C.ar  280  TYR280     -0.0009
     22  CD2      -14.8450  -10.7440    2.9670 C.ar  280  TYR280     -0.0009
     23  CE1      -14.5090   -8.1910    4.0050 C.ar  280  TYR280      0.0417
     24  CE2      -14.3040  -10.5760    4.2390 C.ar  280  TYR280      0.0417
     25  CZ       -14.1390   -9.2980    4.7480 C.ar  280  TYR280      0.1957
     26  OH       -13.6160   -9.1370    6.0080 O.3   280  TYR280     -0.2866
     27  N        -20.7330  -11.2740    9.5130 N.3   341  TRP341     -0.1241
     28  CA       -20.2870  -11.2180   10.9000 C.3   341  TRP341      0.1605
     29  C        -21.4350  -11.0110   11.8700 C.2   341  TRP341      0.2264
     30  O        -21.3140  -11.3230   13.0540 O.2   341  TRP341     -0.2867
     31  CB       -19.1760  -10.1770   11.0460 C.3   341  TRP341      0.0550
     32  CG       -18.1140  -10.4620   10.0530 C.ar  341  TRP341      0.0003
     33  CD1      -17.1030  -11.3730   10.1750 C.ar  341  TRP341      0.0946
     34  CD2      -18.0000   -9.9080    8.7380 C.ar  341  TRP341      0.0152
     35  NE1      -16.3530  -11.4020    9.0300 N.ar  341  TRP341     -0.2442
     36  CE2      -16.8800  -10.5120    8.1300 C.ar  341  TRP341      0.0810
     37  CE3      -18.7250   -8.9420    8.0200 C.ar  341  TRP341      0.0012
     38  CZ2      -16.4610  -10.1810    6.8350 C.ar  341  TRP341      0.0191
     39  CZ3      -18.3090   -8.6160    6.7340 C.ar  341  TRP341      0.0001
     40  CH2      -17.1890   -9.2370    6.1530 C.ar  341  TRP341      0.0015
     41  N        -22.5350  -14.7370   12.0600 N.3   344  MET344     -0.1245
     42  CA       -21.5300  -15.4950   12.8160 C.3   344  MET344      0.1570
     43  C        -21.3560  -15.0110   14.2610 C.2   344  MET344      0.2261
     44  O        -20.4400  -15.4390   14.9580 O.2   344  MET344     -0.2867
     45  CB       -20.2010  -15.5650   12.0690 C.3   344  MET344      0.0387
     46  CG       -20.2810  -16.4510   10.8260 C.3   344  MET344      0.0595
     47  SD       -18.6860  -16.6960   10.0540 S.3   344  MET344     -0.1393
     48  CE       -18.2820  -15.0480    9.4730 C.3   344  MET344      0.0692
     49  N        -20.5760  -12.1040   15.6470 N.3   346  ASN346     -0.1240
     50  CA       -19.3910  -11.2860   15.9110 C.3   346  ASN346      0.1653
     51  C        -19.6720   -9.7990   16.1430 C.2   346  ASN346      0.2266
     52  O        -18.8840   -9.1160   16.8010 O.2   346  ASN346     -0.2867
     53  CB       -18.3910  -11.4320   14.7560 C.3   346  ASN346      0.1155
     54  CG       -17.8350  -12.8350   14.6320 C.2   346  ASN346      0.2627
     55  OD1      -17.4970  -13.4770   15.6310 O.2   346  ASN346     -0.2716
     56  ND2      -17.7230  -13.3150   13.4010 N.am  346  ASN346     -0.0877
     57  N        -15.4100   -8.5460   19.6320 N.3   408  TRP408     -0.1227
     58  CA       -14.7600   -9.0740   18.4370 C.3   408  TRP408      0.1737
     59  C        -14.3490   -7.8740   17.6000 C.2   408  TRP408      0.2595
     60  O        -15.2020   -7.1060   17.1530 O.2   408  TRP408     -0.2718
     61  CB       -15.7070   -9.9930   17.6510 C.3   408  TRP408      0.0564
     62  CG       -15.1420  -10.5250   16.3550 C.ar  408  TRP408      0.0003
     63  CD1      -14.4080  -11.6650   16.1880 C.ar  408  TRP408      0.0946
     64  CD2      -15.2760   -9.9410   15.0490 C.ar  408  TRP408      0.0152
     65  NE1      -14.0680  -11.8240   14.8650 N.ar  408  TRP408     -0.2442
     66  CE2      -14.5960  -10.7880   14.1400 C.ar  408  TRP408      0.0810
     67  CE3      -15.9100   -8.7890   14.5560 C.ar  408  TRP408      0.0012
     68  CZ2      -14.5260  -10.5160   12.7650 C.ar  408  TRP408      0.0191
     69  CZ3      -15.8400   -8.5190   13.1870 C.ar  408  TRP408      0.0001
     70  CH2      -15.1490   -9.3800   12.3090 C.ar  408  TRP408      0.0015
     71  N        -13.0390   -7.7070   17.4200 N.am  409  CYS409     -0.1970
     72  CA       -12.4680   -6.5940   16.6530 C.3   409  CYS409      0.1712
     73  C        -13.0520   -5.2290   17.0360 C.2   409  CYS409      0.2296
     74  O        -13.3250   -4.3890   16.1770 O.2   409  CYS409     -0.2864
     75  CB       -12.5950   -6.8550   15.1450 C.3   409  CYS409      0.0983
     76  SG       -11.7550   -8.3560   14.5830 S.3   409  CYS409     -0.0798
     77  N        -17.6330  -18.5090   17.3560 N.3   457  HIS457     -0.1226
     78  CA       -16.8350  -18.3100   16.1590 C.3   457  HIS457      0.1752
     79  C        -15.8930  -17.1350   16.3860 C.2   457  HIS457      0.2595
     80  O        -16.3400  -16.0110   16.6050 O.2   457  HIS457     -0.2718
     81  CB       -17.7160  -18.0700   14.9330 C.3   457  HIS457      0.0759
     82  CG       -16.9430  -17.9350   13.6590 C.ar  457  HIS457      0.0818
     83  ND1      -16.4810  -19.0240   12.9510 N.ar  457  HIS457     -0.2268
     84  CD2      -16.5290  -16.8400   12.9790 C.ar  457  HIS457      0.1154
     85  CE1      -15.8240  -18.6050   11.8840 C.ar  457  HIS457      0.1986
     86  NE2      -15.8440  -17.2860   11.8750 N.ar  457  HIS457     -0.2212
     87  N        -14.5930  -17.4250   16.3540 N.am  458  GLU458     -0.1979
     88  CA       -13.5360  -16.4430   16.6110 C.3   458  GLU458      0.1602
     89  C        -13.6610  -15.7460   17.9750 C.2   458  GLU458      0.2287
     90  O        -13.3680  -14.5590   18.1160 O.2   458  GLU458     -0.2864
     91  CB       -13.4170  -15.4340   15.4580 C.3   458  GLU458      0.0415
     92  CG       -12.9660  -16.0560   14.1480 C.3   458  GLU458      0.1163
     93  CD       -12.4560  -15.0320   13.1540 C.2   458  GLU458      0.3649
     94  OE1      -12.9630  -13.8900   13.1530 O.co2 458  GLU458     -0.2457
     95  OE2      -11.5500  -15.3780   12.3690 O.co2 458  GLU458     -0.2457
     96  N        -18.6300  -25.1080   10.6750 N.3   490  GLN490     -0.1245
     97  CA       -17.3280  -24.6580   10.1670 C.3   490  GLN490      0.1566
     98  C        -16.2000  -25.1420   11.0740 C.2   490  GLN490      0.2260
     99  O        -16.2980  -25.0440   12.2900 O.2   490  GLN490     -0.2867
    100  CB       -17.2610  -23.1320   10.0990 C.3   490  GLN490      0.0367
    101  CG       -18.2810  -22.4720    9.1990 C.3   490  GLN490      0.0905
    102  CD       -18.0780  -20.9760    9.1470 C.2   490  GLN490      0.2608
    103  OE1      -17.1110  -20.4950    8.5550 O.2   490  GLN490     -0.2717
    104  NE2      -18.9860  -20.2270    9.7730 N.am  490  GLN490     -0.0878
    105  N        -12.6540  -24.0100   11.8570 N.3   492  TRP492     -0.1241
    106  CA       -11.7660  -22.8730   11.6570 C.3   492  TRP492      0.1605
    107  C        -10.8100  -22.7120   12.8370 C.2   492  TRP492      0.2264
    108  O        -11.2440  -22.5880   13.9840 O.2   492  TRP492     -0.2867
    109  CB       -12.5810  -21.5970   11.3940 C.3   492  TRP492      0.0550
    110  CG       -11.7730  -20.3160   11.2790 C.ar  492  TRP492      0.0003
    111  CD1      -11.8790  -19.2120   12.0790 C.ar  492  TRP492      0.0946
    112  CD2      -10.7510  -20.0140   10.3120 C.ar  492  TRP492      0.0152
    113  NE1      -10.9940  -18.2390   11.6700 N.ar  492  TRP492     -0.2442
    114  CE2      -10.2850  -18.7050   10.5920 C.ar  492  TRP492      0.0810
    115  CE3      -10.1890  -20.7170    9.2320 C.ar  492  TRP492      0.0012
    116  CZ2       -9.2770  -18.0850    9.8360 C.ar  492  TRP492      0.0191
    117  CZ3       -9.1780  -20.0970    8.4780 C.ar  492  TRP492      0.0001
    118  CH2       -8.7380  -18.7940    8.7860 C.ar  492  TRP492      0.0015
    119  N        -12.3990  -25.7740    6.5680 N.3   515  LEU515     -0.1245
    120  CA       -12.4820  -24.5060    5.8430 C.3   515  LEU515      0.1561
    121  C        -11.2920  -24.1980    4.9430 C.2   515  LEU515      0.2260
    122  O        -11.4500  -23.5400    3.9140 O.2   515  LEU515     -0.2867
    123  CB       -12.6870  -23.3580    6.8360 C.3   515  LEU515      0.0270
    124  CG       -13.8450  -22.4020    6.5610 C.3   515  LEU515      0.0019
    125  CD1      -15.1950  -23.1230    6.6260 C.3   515  LEU515      0.0001
    126  CD2      -13.8040  -21.2420    7.5390 C.3   515  LEU515      0.0001
    127  N        -10.2240  -22.5640    0.5240 N.3   538  LEU538     -0.1245
    128  CA       -10.6070  -21.2240    0.9820 C.3   538  LEU538      0.1561
    129  C        -10.0740  -20.1740    0.0090 C.2   538  LEU538      0.2260
    130  O        -10.8390  -19.3880   -0.5580 O.2   538  LEU538     -0.2867
    131  CB       -10.1080  -20.9630    2.4120 C.3   538  LEU538      0.0270
    132  CG       -10.8860  -19.9750    3.3090 C.3   538  LEU538      0.0019
    133  CD1      -10.5440  -20.1740    4.7970 C.3   538  LEU538      0.0001
    134  CD2      -10.6820  -18.5110    2.8980 C.3   538  LEU538      0.0001
    135  N         -8.9930  -14.2970    0.8770 N.3   541  PHE541     -0.1241
    136  CA        -9.2410  -13.5950    2.1340 C.3   541  PHE541      0.1605
    137  C         -9.5760  -12.1220    1.8610 C.2   541  PHE541      0.2264
    138  O         -8.8030  -11.4160    1.2150 O.2   541  PHE541     -0.2867
    139  CB        -8.0170  -13.6930    3.0510 C.3   541  PHE541      0.0534
    140  CG        -7.8630  -15.0330    3.7290 C.ar  541  PHE541     -0.0203
    141  CD1       -8.2290  -15.1970    5.0600 C.ar  541  PHE541     -0.0042
    142  CD2       -7.3480  -16.1250    3.0420 C.ar  541  PHE541     -0.0042
    143  CE1       -8.0880  -16.4320    5.6940 C.ar  541  PHE541     -0.0003
    144  CE2       -7.2040  -17.3640    3.6670 C.ar  541  PHE541     -0.0003
    145  CZ        -7.5700  -17.5140    4.9970 C.ar  541  PHE541     -0.0000
    146  N        -13.6650  -16.0060    0.9920 N.3   576  GLU576     -0.1245
    147  CA       -14.2500  -14.8360    1.6370 C.3   576  GLU576      0.1567
    148  C        -14.8140  -13.8880    0.5940 C.2   576  GLU576      0.2260
    149  O        -15.7330  -13.1290    0.8770 O.2   576  GLU576     -0.2867
    150  CB       -13.2370  -14.1550    2.5500 C.3   576  GLU576      0.0388
    151  CG       -12.9290  -15.0170    3.7460 C.3   576  GLU576      0.1160
    152  CD       -11.9690  -14.4050    4.7290 C.2   576  GLU576      0.3649
    153  OE1      -11.5900  -13.2140    4.6150 O.co2 576  GLU576     -0.2457
    154  OE2      -11.5800  -15.1540    5.6340 O.co2 576  GLU576     -0.2457
    155  N         -2.3860  -16.3140    4.5120 N.3   639  GLN639     -0.1245
    156  CA        -3.8010  -16.0060    4.3160 C.3   639  GLN639      0.1566
    157  C         -4.0120  -15.1370    3.0780 C.2   639  GLN639      0.2260
    158  O         -3.9180  -13.9070    3.1420 O.2   639  GLN639     -0.2867
    159  CB        -4.3990  -15.3320    5.5610 C.3   639  GLN639      0.0367
    160  CG        -4.4850  -16.2310    6.7930 C.3   639  GLN639      0.0905
    161  CD        -5.3550  -15.6400    7.8910 C.2   639  GLN639      0.2608
    162  OE1       -5.6990  -14.4610    7.8580 O.2   639  GLN639     -0.2717
    163  NE2       -5.7150  -16.4600    8.8670 N.am  639  GLN639     -0.0878
    164  N         -3.4230   -9.5160    9.4840 N.3   660  TRP660     -0.1241
    165  CA        -3.0850  -10.9370    9.3760 C.3   660  TRP660      0.1605
    166  C         -2.6060  -11.3160    7.9710 C.2   660  TRP660      0.2264
    167  O         -2.6020  -12.4940    7.5970 O.2   660  TRP660     -0.2867
    168  CB        -4.2770  -11.7960    9.8180 C.3   660  TRP660      0.0550
    169  CG        -4.8460  -11.3470   11.1340 C.ar  660  TRP660      0.0003
    170  CD1       -4.4200  -11.7140   12.3820 C.ar  660  TRP660      0.0946
    171  CD2       -5.9260  -10.4230   11.3350 C.ar  660  TRP660      0.0152
    172  NE1       -5.1750  -11.0850   13.3450 N.ar  660  TRP660     -0.2442
    173  CE2       -6.1040  -10.2850   12.7320 C.ar  660  TRP660      0.0810
    174  CE3       -6.7650   -9.7050   10.4720 C.ar  660  TRP660      0.0012
    175  CZ2       -7.0890   -9.4570   13.2850 C.ar  660  TRP660      0.0191
    176  CZ3       -7.7430   -8.8810   11.0240 C.ar  660  TRP660      0.0001
    177  CH2       -7.8950   -8.7660   12.4190 C.ar  660  TRP660      0.0015
    178  N        -13.2110   -0.6670    7.3060 N.3   786  TRP786     -0.1241
    179  CA       -14.0210   -1.8210    7.7380 C.3   786  TRP786      0.1605
    180  C        -15.1090   -1.3810    8.7330 C.2   786  TRP786      0.2264
    181  O        -16.3020   -1.4110    8.4160 O.2   786  TRP786     -0.2867
    182  CB       -13.1320   -2.9400    8.3080 C.3   786  TRP786      0.0550
    183  CG       -13.6440   -4.3450    8.0940 C.ar  786  TRP786      0.0003
    184  CD1      -13.1710   -5.2580    7.1970 C.ar  786  TRP786      0.0946
    185  CD2      -14.7140   -4.9920    8.7980 C.ar  786  TRP786      0.0152
    186  NE1      -13.8740   -6.4380    7.2990 N.ar  786  TRP786     -0.2442
    187  CE2      -14.8320   -6.2990    8.2680 C.ar  786  TRP786      0.0810
    188  CE3      -15.5900   -4.5930    9.8160 C.ar  786  TRP786      0.0012
    189  CZ2      -15.7830   -7.2150    8.7350 C.ar  786  TRP786      0.0191
    190  CZ3      -16.5420   -5.5060   10.2770 C.ar  786  TRP786      0.0001
    191  CH2      -16.6260   -6.8000    9.7370 C.ar  786  TRP786      0.0015
    192  N         -8.7920   -4.2500   11.9870 N.3   797  LEU797     -0.1245
    193  CA        -9.4640   -4.4800   10.7010 C.3   797  LEU797      0.1561
    194  C         -9.1370   -3.4970    9.5750 C.2   797  LEU797      0.2260
    195  O         -9.6540   -3.6400    8.4630 O.2   797  LEU797     -0.2867
    196  CB       -10.9850   -4.5780   10.8910 C.3   797  LEU797      0.0270
    197  CG       -11.5490   -5.8090   11.6050 C.3   797  LEU797      0.0019
    198  CD1      -13.0160   -5.5940   11.9350 C.3   797  LEU797      0.0001
    199  CD2      -11.3660   -7.0930   10.7790 C.3   797  LEU797      0.0001
    200  N         -8.4320   -4.4590    5.8010 N.3   800  TYR800     -0.1241
    201  CA        -8.5430   -5.9210    5.7480 C.3   800  TYR800      0.1605
    202  C         -9.0230   -6.3640    4.3640 C.2   800  TYR800      0.2264
    203  O         -8.5500   -7.3630    3.8130 O.2   800  TYR800     -0.2867
    204  CB        -9.4700   -6.4900    6.8480 C.3   800  TYR800      0.0534
    205  CG        -9.5390   -8.0060    6.7760 C.ar  800  TYR800     -0.0201
    206  CD1       -8.6550   -8.8040    7.4990 C.ar  800  TYR800     -0.0009
    207  CD2      -10.4440   -8.6350    5.9220 C.ar  800  TYR800     -0.0009
    208  CE1       -8.6970  -10.1970    7.3960 C.ar  800  TYR800      0.0417
    209  CE2      -10.4920  -10.0120    5.8050 C.ar  800  TYR800      0.0417
    210  CZ        -9.6180  -10.7880    6.5420 C.ar  800  TYR800      0.1957
    211  OH        -9.6800  -12.1540    6.4080 O.3   800  TYR800     -0.2866
@<TRIPOS>BOND
     1    18    17    2
     2    17    16    1
     3   130   129    2
     4   129   128    1
     5   127   128    1
     6    16    19    1
     7    16    15    1
     8   148   149    2
     9   148   147    1
    10    19    20    1
    11   135   136    1
    12   128   131    1
    13   146   147    1
    14   138   137    2
    15   147   150    1
    16     1     2    1
    17   137   136    1
    18   136   139    1
    19    20    21   ar
    20    20    22   ar
    21   131   132    1
    22    12    11    2
    23   150   151    1
    24     4     3    2
    25    21    23   ar
    26    11    10    1
    27   134   132    1
    28    22    24   ar
    29   142   144   ar
    30   142   140   ar
    31   139   140    1
    32   157   158    2
    33   157   156    1
    34     5     2    1
    35     5     6    1
    36     2     3    1
    37   132   133    1
    38   144   145   ar
    39   140   141   ar
    40   151   152    1
    41   203   202    2
    42   122   121    2
    43    23    25   ar
    44    24    25   ar
    45    10    13    1
    46    10     9    1
    47   156   155    1
    48   156   159    1
    49   202   201    1
    50     6     8   am
    51     6     7    2
    52    13    14    1
    53   153   152   ar
    54   152   154   ar
    55    25    26    1
    56   121   120    1
    57   145   143   ar
    58   141   143   ar
    59   159   160    1
    60   201   200    1
    61   201   204    1
    62   209   207   ar
    63   209   210   ar
    64   120   119    1
    65   120   123    1
    66   207   205   ar
    67    40    39   ar
    68    40    38   ar
    69   211   210    1
    70   210   208   ar
    71   124   125    1
    72   124   123    1
    73   124   126    1
    74    39    37   ar
    75   205   204    1
    76   205   206   ar
    77   160   161    1
    78    38    36   ar
    79   184   186   ar
    80   184   183   ar
    81   186   187   ar
    82   178   179    1
    83   208   206   ar
    84   167   166    2
    85   179   182    1
    86   179   180    1
    87   162   161    2
    88   161   163   am
    89   166   165    1
    90    37    34   ar
    91   183   182    1
    92   183   185   ar
    93    36    34   ar
    94    36    35   ar
    95   187   189   ar
    96   187   185   ar
    97   181   180    2
    98   195   194    2
    99   117   118   ar
   100   117   115   ar
   101   103   102    2
   102   189   191   ar
   103    34    32   ar
   104   118   116   ar
   105   185   188   ar
   106    35    33   ar
   107   102   101    1
   108   102   104   am
   109   101   100    1
   110   115   112   ar
   111   165   164    1
   112   165   168    1
   113    48    47    1
   114    27    28    1
   115   194   193    1
   116   191   190   ar
   117   188   190   ar
   118   168   169    1
   119   116   114   ar
   120    32    33   ar
   121    32    31    1
   122    47    46    1
   123   100    97    1
   124    97    96    1
   125    97    98    1
   126   112   114   ar
   127   112   110   ar
   128   174   176   ar
   129   174   171   ar
   130   114   113   ar
   131   193   196    1
   132   193   192    1
   133   199   197    1
   134    46    45    1
   135   196   197    1
   136    28    31    1
   137    28    29    1
   138   176   177   ar
   139    98    99    2
   140   169   171   ar
   141   169   170   ar
   142   110   109    1
   143   110   111   ar
   144   171   173   ar
   145   109   106    1
   146   197   198    1
   147   106   105    1
   148   106   107    1
   149   113   111   ar
   150    29    30    2
   151    86    85   ar
   152    86    84   ar
   153    85    83   ar
   154    41    42    1
   155    45    42    1
   156    70    68   ar
   157    70    69   ar
   158    95    93   ar
   159   170   172   ar
   160   177   175   ar
   161   173   175   ar
   162   173   172   ar
   163    68    66   ar
   164    42    43    1
   165   107   108    2
   166    83    82   ar
   167    84    82   ar
   168    94    93   ar
   169    93    92    1
   170    69    67   ar
   171    56    54   am
   172    82    81    1
   173    66    65   ar
   174    66    64   ar
   175    92    91    1
   176    43    44    2
   177    67    64   ar
   178    76    75    1
   179    54    53    1
   180    54    55    2
   181    53    50    1
   182    65    63   ar
   183    81    78    1
   184    64    62   ar
   185    75    72    1
   186    91    88    1
   187    49    50    1
   188    50    51    1
   189    51    52    2
   190    78    79    1
   191    78    77    1
   192    74    73    2
   193    63    62   ar
   194    87    79   am
   195    87    88    1
   196    62    61    1
   197    79    80    2
   198    88    89    1
   199    72    73    1
   200    72    71    1
   201    60    59    2
   202    71    59   am
   203    59    58    1
   204    61    58    1
   205    89    90    2
   206    58    57    1
