@<TRIPOS>MOLECULE
tmp/2vcbA00.pdb
 225 219 0 0 0
SMALL
GASTEIGER

@<TRIPOS>ATOM
      1  N         18.5940  -19.2130   -1.7620 N.3   273  ASN273     -0.1240
      2  CA        18.1620  -18.8360   -3.1030 C.3   273  ASN273      0.1653
      3  C         19.1510  -17.7540   -3.5280 C.2   273  ASN273      0.2266
      4  O         19.5570  -16.9530   -2.6820 O.2   273  ASN273     -0.2867
      5  CB        16.7710  -18.2050   -2.9720 C.3   273  ASN273      0.1155
      6  CG        16.0450  -18.0220   -4.2990 C.2   273  ASN273      0.2627
      7  OD1       16.5900  -17.4840   -5.2540 O.2   273  ASN273     -0.2716
      8  ND2       14.7760  -18.4290   -4.3380 N.am  273  ASN273     -0.0877
      9  N         18.5970  -15.1340   -4.7600 N.3   275  CYS275     -0.1235
     10  CA        17.9140  -13.9260   -4.2550 C.3   275  CYS275      0.1677
     11  C         18.1810  -13.5640   -2.7890 C.2   275  CYS275      0.2270
     12  O         18.0680  -12.3820   -2.4250 O.2   275  CYS275     -0.2867
     13  CB        16.3950  -14.0250   -4.4670 C.3   275  CYS275      0.0956
     14  SG        15.8500  -14.4140   -6.1580 S.3   275  CYS275     -0.0801
     15  N         18.2010   -9.7970   -1.2980 N.3   279  TYR279     -0.1241
     16  CA        17.0990   -9.3110   -0.4620 C.3   279  TYR279      0.1605
     17  C         17.3960   -9.2750    1.0280 C.2   279  TYR279      0.2264
     18  O         16.7970   -8.4610    1.7500 O.2   279  TYR279     -0.2867
     19  CB        15.8160  -10.1000   -0.7040 C.3   279  TYR279      0.0534
     20  CG        15.2220   -9.8920   -2.0790 C.ar  279  TYR279     -0.0201
     21  CD1       14.9950   -8.6080   -2.5830 C.ar  279  TYR279     -0.0009
     22  CD2       14.8710  -10.9810   -2.8690 C.ar  279  TYR279     -0.0009
     23  CE1       14.4450   -8.4230   -3.8440 C.ar  279  TYR279      0.0417
     24  CE2       14.3150  -10.8060   -4.1160 C.ar  279  TYR279      0.0417
     25  CZ        14.1020   -9.5320   -4.5980 C.ar  279  TYR279      0.1957
     26  OH        13.5690   -9.3830   -5.8500 O.3   279  TYR279     -0.2866
     27  N         20.4840  -11.5020   -9.4380 N.3   340  TRP340     -0.1241
     28  CA        20.0430  -11.4860  -10.8270 C.3   340  TRP340      0.1605
     29  C         21.1960  -11.2120  -11.7860 C.2   340  TRP340      0.2264
     30  O         21.0430  -11.3430  -13.0010 O.2   340  TRP340     -0.2867
     31  CB        18.9080  -10.4720  -10.9920 C.3   340  TRP340      0.0550
     32  CG        17.9230  -10.6740   -9.9200 C.ar  340  TRP340      0.0003
     33  CD1       16.8990  -11.5850   -9.9070 C.ar  340  TRP340      0.0946
     34  CD2       17.8950  -10.0170   -8.6500 C.ar  340  TRP340      0.0152
     35  NE1       16.2280  -11.5200   -8.7110 N.ar  340  TRP340     -0.2442
     36  CE2       16.8250  -10.5730   -7.9180 C.ar  340  TRP340      0.0810
     37  CE3       18.6760   -9.0130   -8.0540 C.ar  340  TRP340      0.0012
     38  CZ2       16.5040  -10.1500   -6.6310 C.ar  340  TRP340      0.0191
     39  CZ3       18.3480   -8.5900   -6.7750 C.ar  340  TRP340      0.0001
     40  CH2       17.2740   -9.1620   -6.0780 C.ar  340  TRP340      0.0015
     41  N         22.4070  -14.9950  -12.0060 N.3   343  MET343     -0.1245
     42  CA        21.3560  -15.7270  -12.7290 C.3   343  MET343      0.1570
     43  C         21.1520  -15.2210  -14.1610 C.2   343  MET343      0.2261
     44  O         20.1820  -15.5890  -14.8210 O.2   343  MET343     -0.2867
     45  CB        20.0250  -15.6900  -11.9620 C.3   343  MET343      0.0387
     46  CG        20.0410  -16.4650  -10.6470 C.3   343  MET343      0.0595
     47  SD        18.4350  -16.7080   -9.8720 S.3   343  MET343     -0.1393
     48  CE        17.9720  -15.0500   -9.4000 C.3   343  MET343      0.0692
     49  N         20.3470  -12.3690  -15.5360 N.3   345  ASN345     -0.1240
     50  CA        19.1790  -11.5320  -15.8040 C.3   345  ASN345      0.1653
     51  C         19.5090  -10.0680  -16.0830 C.2   345  ASN345      0.2266
     52  O         18.7830   -9.4070  -16.8120 O.2   345  ASN345     -0.2867
     53  CB        18.1820  -11.6230  -14.6340 C.3   345  ASN345      0.1155
     54  CG        17.6040  -13.0240  -14.4610 C.2   345  ASN345      0.2627
     55  OD1       17.2210  -13.6810  -15.4390 O.2   345  ASN345     -0.2716
     56  ND2       17.5410  -13.4890  -13.2170 N.am  345  ASN345     -0.0877
     57  N         15.3950   -8.6800  -19.5440 N.3   407  TRP407     -0.1241
     58  CA        14.7140   -9.1840  -18.3500 C.3   407  TRP407      0.1605
     59  C         14.2300   -7.9900  -17.5420 C.2   407  TRP407      0.2264
     60  O         15.0340   -7.1680  -17.1060 O.2   407  TRP407     -0.2867
     61  CB        15.6410  -10.0640  -17.5110 C.3   407  TRP407      0.0550
     62  CG        14.9770  -10.6610  -16.3050 C.ar  407  TRP407      0.0003
     63  CD1       14.1880  -11.7720  -16.2700 C.ar  407  TRP407      0.0946
     64  CD2       15.0530  -10.1790  -14.9540 C.ar  407  TRP407      0.0152
     65  NE1       13.7590  -12.0090  -14.9850 N.ar  407  TRP407     -0.2442
     66  CE2       14.2760  -11.0510  -14.1560 C.ar  407  TRP407      0.0810
     67  CE3       15.6960   -9.0930  -14.3430 C.ar  407  TRP407      0.0012
     68  CZ2       14.1260  -10.8750  -12.7730 C.ar  407  TRP407      0.0191
     69  CZ3       15.5530   -8.9200  -12.9640 C.ar  407  TRP407      0.0001
     70  CH2       14.7710   -9.8080  -12.1970 C.ar  407  TRP407      0.0015
     71  N         17.3510  -18.7230  -17.1760 N.3   456  HIS456     -0.1226
     72  CA        16.5540  -18.4930  -15.9800 C.3   456  HIS456      0.1752
     73  C         15.6390  -17.3010  -16.2150 C.2   456  HIS456      0.2595
     74  O         16.1010  -16.1740  -16.4250 O.2   456  HIS456     -0.2718
     75  CB        17.4370  -18.2750  -14.7430 C.3   456  HIS456      0.0759
     76  CG        16.6610  -18.0940  -13.4720 C.ar  456  HIS456      0.0818
     77  ND1       16.2290  -19.1540  -12.7040 N.ar  456  HIS456     -0.2268
     78  CD2       16.2360  -16.9740  -12.8390 C.ar  456  HIS456      0.1154
     79  CE1       15.5730  -18.6970  -11.6520 C.ar  456  HIS456      0.1986
     80  NE2       15.5670  -17.3770  -11.7090 N.ar  456  HIS456     -0.2212
     81  N         14.3360  -17.5820  -16.1750 N.am  457  GLU457     -0.1979
     82  CA        13.2780  -16.6150  -16.4720 C.3   457  GLU457      0.1602
     83  C         13.4420  -15.9340  -17.8460 C.2   457  GLU457      0.2287
     84  O         13.3440  -14.7120  -17.9700 O.2   457  GLU457     -0.2864
     85  CB        13.1070  -15.6120  -15.3160 C.3   457  GLU457      0.0415
     86  CG        12.6220  -16.2800  -14.0350 C.3   457  GLU457      0.1163
     87  CD        12.2190  -15.2910  -12.9630 C.2   457  GLU457      0.3649
     88  OE1       12.7710  -14.1640  -12.9430 O.co2 457  GLU457     -0.2457
     89  OE2       11.3470  -15.6500  -12.1390 O.co2 457  GLU457     -0.2457
     90  N         18.6030  -25.3730  -10.4860 N.3   489  GLN489     -0.1245
     91  CA        17.3090  -24.8920  -10.0020 C.3   489  GLN489      0.1566
     92  C         16.1830  -25.3660  -10.8950 C.2   489  GLN489      0.2260
     93  O         16.3100  -25.3810  -12.1230 O.2   489  GLN489     -0.2867
     94  CB        17.2520  -23.3700   -9.9960 C.3   489  GLN489      0.0367
     95  CG        18.1380  -22.6700   -8.9970 C.3   489  GLN489      0.0905
     96  CD        17.8210  -21.1930   -8.9400 C.2   489  GLN489      0.2608
     97  OE1       16.8060  -20.7920   -8.3790 O.2   489  GLN489     -0.2717
     98  NE2       18.6870  -20.3730   -9.5280 N.am  489  GLN489     -0.0878
     99  N         12.6080  -24.1620  -11.7030 N.3   491  TRP491     -0.1227
    100  CA        11.6650  -23.0510  -11.5520 C.3   491  TRP491      0.1737
    101  C         10.7390  -22.9390  -12.7610 C.2   491  TRP491      0.2595
    102  O         11.1990  -22.8780  -13.9060 O.2   491  TRP491     -0.2718
    103  CB        12.4280  -21.7400  -11.3220 C.3   491  TRP491      0.0564
    104  CG        11.5690  -20.5210  -11.0490 C.ar  491  TRP491      0.0003
    105  CD1       11.5820  -19.3480  -11.7530 C.ar  491  TRP491      0.0946
    106  CD2       10.5910  -20.3520  -10.0070 C.ar  491  TRP491      0.0152
    107  NE1       10.6750  -18.4590  -11.2190 N.ar  491  TRP491     -0.2442
    108  CE2       10.0520  -19.0480  -10.1480 C.ar  491  TRP491      0.0810
    109  CE3       10.1180  -21.1710   -8.9670 C.ar  491  TRP491      0.0012
    110  CZ2        9.0660  -18.5420   -9.2820 C.ar  491  TRP491      0.0191
    111  CZ3        9.1410  -20.6700   -8.1080 C.ar  491  TRP491      0.0001
    112  CH2        8.6190  -19.3670   -8.2770 C.ar  491  TRP491      0.0015
    113  N          9.4360  -22.9100  -12.4770 N.am  492  GLN492     -0.1979
    114  CA         8.3620  -22.8250  -13.4790 C.3   492  GLN492      0.1601
    115  C          8.5440  -23.7750  -14.6830 C.2   492  GLN492      0.2287
    116  O          8.4160  -23.3710  -15.8400 O.2   492  GLN492     -0.2864
    117  CB         8.0430  -21.3610  -13.8790 C.3   492  GLN492      0.0394
    118  CG         9.2060  -20.5510  -14.4450 C.3   492  GLN492      0.0908
    119  CD         8.9850  -19.0330  -14.4440 C.2   492  GLN492      0.2608
    120  OE1        9.6780  -18.2980  -15.1570 O.2   492  GLN492     -0.2717
    121  NE2        8.0390  -18.5610  -13.6330 N.am  492  GLN492     -0.0878
    122  N         12.2750  -26.0430   -6.3520 N.3   514  LEU514     -0.1245
    123  CA        12.3920  -24.7840   -5.6200 C.3   514  LEU514      0.1561
    124  C         11.1760  -24.4210   -4.7670 C.2   514  LEU514      0.2260
    125  O         11.3070  -23.7040   -3.7870 O.2   514  LEU514     -0.2867
    126  CB        12.7010  -23.6410   -6.6010 C.3   514  LEU514      0.0270
    127  CG        13.8180  -22.6370   -6.2910 C.3   514  LEU514      0.0019
    128  CD1       15.1810  -23.2740   -6.4530 C.3   514  LEU514      0.0001
    129  CD2       13.7000  -21.4230   -7.1970 C.3   514  LEU514      0.0001
    130  N         10.1460  -22.8270   -0.4070 N.3   537  LEU537     -0.1245
    131  CA        10.4280  -21.4700   -0.8600 C.3   537  LEU537      0.1561
    132  C          9.8730  -20.4370    0.1140 C.2   537  LEU537      0.2260
    133  O         10.6280  -19.7040    0.7530 O.2   537  LEU537     -0.2867
    134  CB         9.8470  -21.2410   -2.2570 C.3   537  LEU537      0.0270
    135  CG        10.6130  -20.2710   -3.1590 C.3   537  LEU537      0.0019
    136  CD1       10.2050  -20.4520   -4.6130 C.3   537  LEU537      0.0001
    137  CD2       10.3950  -18.8340   -2.7110 C.3   537  LEU537      0.0001
    138  N          8.8620  -14.5870   -0.8350 N.3   540  PHE540     -0.1241
    139  CA         9.1570  -13.8670   -2.0690 C.3   540  PHE540      0.1605
    140  C          9.4920  -12.4160   -1.7780 C.2   540  PHE540      0.2264
    141  O          8.6830  -11.7010   -1.1860 O.2   540  PHE540     -0.2867
    142  CB         7.9710  -13.9290   -3.0290 C.3   540  PHE540      0.0534
    143  CG         7.7840  -15.2680   -3.6710 C.ar  540  PHE540     -0.0203
    144  CD1        8.3820  -15.5550   -4.8870 C.ar  540  PHE540     -0.0042
    145  CD2        7.0300  -16.2530   -3.0480 C.ar  540  PHE540     -0.0042
    146  CE1        8.2170  -16.8000   -5.4810 C.ar  540  PHE540     -0.0003
    147  CE2        6.8630  -17.4940   -3.6370 C.ar  540  PHE540     -0.0003
    148  CZ         7.4570  -17.7640   -4.8590 C.ar  540  PHE540     -0.0000
    149  N          8.9610   -9.8690    1.3300 N.3   543  ARG543     -0.1245
    150  CA         7.6410   -9.3450    1.6190 C.3   543  ARG543      0.1563
    151  C          7.0920  -10.0210    2.8750 C.2   543  ARG543      0.2260
    152  O          7.1320  -11.2390    3.0170 O.2   543  ARG543     -0.2867
    153  CB         6.7120   -9.5330    0.4130 C.3   543  ARG543      0.0307
    154  CG         7.1800   -8.8000   -0.8350 C.3   543  ARG543      0.0489
    155  CD         6.0950   -8.6950   -1.8720 C.3   543  ARG543      0.2205
    156  NE         5.7150   -9.9910   -2.4230 N.pl3 543  ARG543     -0.0865
    157  CZ         6.1190  -10.4680   -3.5960 C.cat 543  ARG543      0.5346
    158  NH1        6.9290   -9.7610   -4.3740 N.pl3 543  ARG543      0.1354
    159  NH2        5.7080  -11.6600   -3.9920 N.pl3 543  ARG543      0.1354
    160  N         13.6450  -16.1500   -0.8890 N.3   575  GLU575     -0.1245
    161  CA        14.2650  -14.9940   -1.5300 C.3   575  GLU575      0.1567
    162  C         14.8220  -14.0540   -0.4800 C.2   575  GLU575      0.2260
    163  O         15.6780  -13.2240   -0.7680 O.2   575  GLU575     -0.2867
    164  CB        13.2660  -14.2760   -2.4330 C.3   575  GLU575      0.0388
    165  CG        12.6740  -15.1650   -3.5440 C.3   575  GLU575      0.1160
    166  CD        11.8640  -14.3940   -4.5810 C.2   575  GLU575      0.3649
    167  OE1       11.5570  -13.1880   -4.3890 O.co2 575  GLU575     -0.2457
    168  OE2       11.5240  -15.0080   -5.6010 O.co2 575  GLU575     -0.2457
    169  N          2.0600  -16.6400   -4.3990 N.3   638  GLN638     -0.1245
    170  CA         3.4350  -16.2810   -4.1590 C.3   638  GLN638      0.1566
    171  C          3.5910  -15.3160   -2.9930 C.2   638  GLN638      0.2260
    172  O          3.3350  -14.1250   -3.1060 O.2   638  GLN638     -0.2867
    173  CB         4.1500  -15.7830   -5.4170 C.3   638  GLN638      0.0367
    174  CG         3.8990  -16.5900   -6.6560 C.3   638  GLN638      0.0905
    175  CD         4.9330  -16.3930   -7.7260 C.2   638  GLN638      0.2608
    176  OE1        5.5460  -15.3460   -7.8320 O.2   638  GLN638     -0.2717
    177  NE2        5.1380  -17.4130   -8.5260 N.am  638  GLN638     -0.0878
    178  N          3.1540   -9.2500   -9.7440 N.3   659  TRP659     -0.1241
    179  CA         2.6310  -10.6040   -9.6970 C.3   659  TRP659      0.1605
    180  C          2.4430  -11.1430   -8.3020 C.2   659  TRP659      0.2264
    181  O          2.8850  -12.2040   -7.9540 O.2   659  TRP659     -0.2867
    182  CB         3.4790  -11.5530  -10.5150 C.3   659  TRP659      0.0550
    183  CG         4.2590  -10.8780  -11.5620 C.ar  659  TRP659      0.0003
    184  CD1        3.9080  -10.7120  -12.8570 C.ar  659  TRP659      0.0946
    185  CD2        5.5380  -10.2710  -11.4080 C.ar  659  TRP659      0.0152
    186  NE1        4.8760  -10.0350  -13.5190 N.ar  659  TRP659     -0.2442
    187  CE2        5.8950   -9.7480  -12.6500 C.ar  659  TRP659      0.0810
    188  CE3        6.4040  -10.1000  -10.3340 C.ar  659  TRP659      0.0012
    189  CZ2        7.0790   -9.0730  -12.8520 C.ar  659  TRP659      0.0191
    190  CZ3        7.5680   -9.4410  -10.5370 C.ar  659  TRP659      0.0001
    191  CH2        7.9060   -8.9340  -11.7860 C.ar  659  TRP659      0.0015
    192  N         13.1900   -0.8830   -7.1860 N.3   785  TRP785     -0.1241
    193  CA        14.0040   -2.0220   -7.6170 C.3   785  TRP785      0.1605
    194  C         15.0750   -1.5780   -8.6090 C.2   785  TRP785      0.2264
    195  O         16.2890   -1.7040   -8.3440 O.2   785  TRP785     -0.2867
    196  CB        13.1060   -3.1170   -8.2050 C.3   785  TRP785      0.0550
    197  CG        13.5870   -4.5100   -7.9980 C.ar  785  TRP785      0.0003
    198  CD1       13.0880   -5.4270   -7.1110 C.ar  785  TRP785      0.0946
    199  CD2       14.6450   -5.1730   -8.7040 C.ar  785  TRP785      0.0152
    200  NE1       13.7710   -6.6120   -7.2210 N.ar  785  TRP785     -0.2442
    201  CE2       14.7310   -6.4830   -8.1900 C.ar  785  TRP785      0.0810
    202  CE3       15.5250   -4.7890   -9.7290 C.ar  785  TRP785      0.0012
    203  CZ2       15.6580   -7.4100   -8.6690 C.ar  785  TRP785      0.0191
    204  CZ3       16.4490   -5.7150  -10.2000 C.ar  785  TRP785      0.0001
    205  CH2       16.5080   -7.0050   -9.6690 C.ar  785  TRP785      0.0015
    206  N          8.7050   -4.4690  -11.7660 N.3   796  LEU796     -0.1245
    207  CA         9.4040   -4.6590  -10.4740 C.3   796  LEU796      0.1561
    208  C          9.0760   -3.6510   -9.3670 C.2   796  LEU796      0.2260
    209  O          9.5770   -3.7700   -8.2530 O.2   796  LEU796     -0.2867
    210  CB        10.9230   -4.7240  -10.6830 C.3   796  LEU796      0.0270
    211  CG        11.4710   -5.9440  -11.4330 C.3   796  LEU796      0.0019
    212  CD1       12.9080   -5.7030  -11.8410 C.3   796  LEU796      0.0001
    213  CD2       11.3440   -7.2190  -10.6010 C.3   796  LEU796      0.0001
    214  N          8.3960   -4.6930   -5.6120 N.3   799  TYR799     -0.1241
    215  CA         8.4480   -6.1580   -5.5660 C.3   799  TYR799      0.1605
    216  C          8.9250   -6.6180   -4.1810 C.2   799  TYR799      0.2264
    217  O          8.4640   -7.6340   -3.6520 O.2   799  TYR799     -0.2867
    218  CB         9.3470   -6.7430   -6.6840 C.3   799  TYR799      0.0534
    219  CG         9.4830   -8.2470   -6.5810 C.ar  799  TYR799     -0.0201
    220  CD1        8.6430   -9.1040   -7.3000 C.ar  799  TYR799     -0.0009
    221  CD2       10.4230   -8.8200   -5.7140 C.ar  799  TYR799     -0.0009
    222  CE1        8.7520  -10.4920   -7.1730 C.ar  799  TYR799      0.0417
    223  CE2       10.5290  -10.2020   -5.5730 C.ar  799  TYR799      0.0417
    224  CZ         9.7000  -11.0300   -6.3040 C.ar  799  TYR799      0.1957
    225  OH         9.8360  -12.3940   -6.1390 O.3   799  TYR799     -0.2866
@<TRIPOS>BOND
     1    57    58    1
     2    58    59    1
     3    58    61    1
     4    84    83    2
     5    83    82    1
     6    59    60    2
     7    61    62    1
     8    71    72    1
     9    52    51    2
    10    82    81    1
    11    82    85    1
    12    74    73    2
    13    62    63   ar
    14    62    64   ar
    15    63    65   ar
    16    73    81   am
    17    73    72    1
    18    51    50    1
    19    72    75    1
    20   116   115    2
    21    50    49    1
    22    50    53    1
    23    55    54    2
    24    85    86    1
    25   120   119    2
    26    65    66   ar
    27    64    67   ar
    28    64    66   ar
    29    44    43    2
    30    75    76    1
    31   115   114    1
    32    53    54    1
    33    54    56   am
    34   118   119    1
    35   118   117    1
    36   119   121   am
    37    67    69   ar
    38    43    42    1
    39    66    68   ar
    40    86    87    1
    41   102   101    2
    42   117   114    1
    43   186   184   ar
    44   186   187   ar
    45   114   113    1
    46    76    78   ar
    47    76    77   ar
    48    30    29    2
    49    69    70   ar
    50    87    88   ar
    51    87    89   ar
    52   184   183   ar
    53   189   187   ar
    54   189   191   ar
    55    78    80   ar
    56    68    70   ar
    57   101   113   am
    58   101   100    1
    59    42    41    1
    60    42    45    1
    61    77    79   ar
    62   187   185   ar
    63    93    92    2
    64    45    46    1
    65   212   211    1
    66    29    28    1
    67   191   190   ar
    68   206   207    1
    69   105   107   ar
    70   105   104   ar
    71    80    79   ar
    72    99   100    1
    73   183   185   ar
    74   183   182    1
    75   100   103    1
    76   211   210    1
    77   211   213    1
    78   185   188   ar
    79   103   104    1
    80   107   108   ar
    81   104   106   ar
    82    31    28    1
    83    31    32    1
    84    92    91    1
    85    28    27    1
    86   210   207    1
    87    46    47    1
    88   190   188   ar
    89   182   179    1
    90    90    91    1
    91   207   208    1
    92   204   202   ar
    93   204   205   ar
    94   108   106   ar
    95   108   110   ar
    96   106   109   ar
    97    91    94    1
    98    94    95    1
    99    32    33   ar
   100    32    34   ar
   101    33    35   ar
   102    47    48    1
   103   178   179    1
   104   202   199   ar
   105   179   180    1
   106   205   203   ar
   107    98    96   am
   108   208   209    2
   109   110   112   ar
   110    95    96    1
   111   109   111   ar
   112    96    97    2
   113    35    36   ar
   114   199   201   ar
   115   199   197   ar
   116   203   201   ar
   117    34    37   ar
   118    34    36   ar
   119   194   195    2
   120   194   193    1
   121   177   175   am
   122   180   181    2
   123   112   111   ar
   124   196   197    1
   125   196   193    1
   126   201   200   ar
   127    37    39   ar
   128   197   198   ar
   129    36    38   ar
   130   176   175    2
   131   175   174    1
   132   193   192    1
   133   220   222   ar
   134   220   219   ar
   135   200   198   ar
   136   129   127    1
   137   222   224   ar
   138    39    40   ar
   139   218   219    1
   140   218   215    1
   141   174   173    1
   142    38    40   ar
   143   126   127    1
   144   126   123    1
   145   219   221   ar
   146   128   127    1
   147   122   123    1
   148   224   225    1
   149   224   223   ar
   150    14    13    1
   151    26    25    1
   152   221   223   ar
   153   123   124    1
   154   214   215    1
   155   168   166   ar
   156   215   216    1
   157   146   144   ar
   158   146   148   ar
   159   173   170    1
   160     7     6    2
   161   144   143   ar
   162   148   147   ar
   163   124   125    2
   164     9    10    1
   165   136   135    1
   166    25    24   ar
   167    25    23   ar
   168   166   167   ar
   169   166   165    1
   170    13    10    1
   171   169   170    1
   172   158   157    1
   173     8     6   am
   174     6     5    1
   175    10    11    1
   176   216   217    2
   177   170   171    1
   178    24    22   ar
   179   159   157    1
   180    23    21   ar
   181   143   145   ar
   182   143   142    1
   183   147   145   ar
   184   157   156    2
   185   165   164    1
   186     3     2    1
   187     3     4    2
   188   135   137    1
   189   135   134    1
   190   172   171    2
   191     2     5    1
   192     2     1    1
   193   142   139    1
   194    22    20   ar
   195    11    12    2
   196    21    20   ar
   197   164   161    1
   198   156   155    1
   199   134   131    1
   200    20    19    1
   201   139   140    1
   202   139   138    1
   203   155   154    1
   204   140   141    2
   205   161   160    1
   206   161   162    1
   207    15    16    1
   208   131   130    1
   209   131   132    1
   210   154   153    1
   211   163   162    2
   212    19    16    1
   213    16    17    1
   214   132   133    2
   215   153   150    1
   216    17    18    2
   217   149   150    1
   218   150   151    1
   219   151   152    2
