@<TRIPOS>MOLECULE
tmp/2vcdA00.pdb
 156 154 0 0 0
SMALL
GASTEIGER

@<TRIPOS>ATOM
      1  N         97.7560   -3.4800   -2.1540 N.3    55  TYR55      -0.1241
      2  CA        98.1030   -2.5090   -1.1160 C.3    55  TYR55       0.1605
      3  C         96.9380   -1.6600   -0.6070 C.2    55  TYR55       0.2264
      4  O         95.9220   -1.5030   -1.2790 O.2    55  TYR55      -0.2867
      5  CB        99.1270   -1.5600   -1.7200 C.3    55  TYR55       0.0534
      6  CG        98.5260   -0.9710   -2.9850 C.ar   55  TYR55      -0.0201
      7  CD1       97.6260    0.1010   -2.9020 C.ar   55  TYR55      -0.0009
      8  CD2       98.8360   -1.5170   -4.2290 C.ar   55  TYR55      -0.0009
      9  CE1       97.0400    0.6250   -4.0600 C.ar   55  TYR55       0.0417
     10  CE2       98.2560   -0.9880   -5.3900 C.ar   55  TYR55       0.0417
     11  CZ        97.3580    0.0790   -5.3060 C.ar   55  TYR55       0.1957
     12  OH        96.7780    0.5830   -6.4530 O.3    55  TYR55      -0.2866
     13  N         92.5080    6.9780    1.7760 N.3    65  PHE65      -0.1227
     14  CA        92.1810    7.5950    0.4950 C.3    65  PHE65       0.1736
     15  C         92.2750    6.6130   -0.6580 C.2    65  PHE65       0.2595
     16  O         91.7930    6.8910   -1.7570 O.2    65  PHE65      -0.2718
     17  CB        93.0600    8.8180    0.2640 C.3    65  PHE65       0.0547
     18  CG        94.5170    8.4850    0.0190 C.ar   65  PHE65      -0.0202
     19  CD1       95.3150    8.0640    1.0800 C.ar   65  PHE65      -0.0042
     20  CD2       95.0830    8.6730   -1.2490 C.ar   65  PHE65      -0.0042
     21  CE1       96.6820    7.8250    0.8860 C.ar   65  PHE65      -0.0003
     22  CE2       96.4480    8.4270   -1.4510 C.ar   65  PHE65      -0.0003
     23  CZ        97.2510    8.0050   -0.3800 C.ar   65  PHE65      -0.0000
     24  N         92.8530    5.4550   -0.4000 N.am   66  ASP66      -0.1974
     25  CA        92.9500    4.4340   -1.4360 C.3    66  ASP66       0.1709
     26  C         93.2310    3.0680   -0.8450 C.2    66  ASP66       0.2293
     27  O         93.8290    2.9520    0.2240 O.2    66  ASP66      -0.2864
     28  CB        94.0470    4.7860   -2.4340 C.3    66  ASP66       0.1436
     29  CG        93.8910    3.9460   -3.6980 C.2    66  ASP66       0.3671
     30  OD1       94.4450    2.8590   -3.7370 O.co2  66  ASP66      -0.2456
     31  OD2       93.2190    4.4010   -4.6090 O.co2  66  ASP66      -0.2456
     32  N         99.8770   -4.0580  -11.1970 N.3    76  THR76      -0.1203
     33  CA       101.2020   -4.0770  -11.8150 C.3    76  THR76       0.1994
     34  C        101.7520   -2.6820  -12.0210 C.2    76  THR76       0.2618
     35  O        101.0990   -1.8220  -12.6160 O.2    76  THR76      -0.2717
     36  CB       101.1390   -4.7970  -13.1560 C.3    76  THR76       0.1784
     37  OG1      102.2280   -4.3800  -13.9660 O.3    76  THR76      -0.2211
     38  CG2       99.8240   -4.4610  -13.8590 C.3    76  THR76       0.0376
     39  N        102.9800   -2.4680  -11.5390 N.am   77  PHE77      -0.1961
     40  CA       103.6400   -1.1850  -11.6850 C.3    77  PHE77       0.1771
     41  C        105.0650   -1.3640  -12.0920 C.2    77  PHE77       0.2619
     42  O        105.7410   -2.3070  -11.6860 O.2    77  PHE77      -0.2715
     43  CB       103.6910   -0.4040  -10.3790 C.3    77  PHE77       0.0574
     44  CG       102.3190   -0.2190   -9.7970 C.ar   77  PHE77      -0.0200
     45  CD1      102.0890   -0.5690   -8.4670 C.ar   77  PHE77      -0.0042
     46  CD2      101.2910    0.3180  -10.5740 C.ar   77  PHE77      -0.0042
     47  CE1      100.8170   -0.3890   -7.9080 C.ar   77  PHE77      -0.0003
     48  CE2      100.0240    0.4980  -10.0220 C.ar   77  PHE77      -0.0003
     49  CZ        99.7820    0.1440   -8.6900 C.ar   77  PHE77      -0.0000
     50  N        105.5450   -0.3820  -12.8040 N.am   78  GLN78      -0.1977
     51  CA       106.9320   -0.3490  -13.1750 C.3    78  GLN78       0.1601
     52  C        107.6190    0.4780  -12.1220 C.2    78  GLN78       0.2287
     53  O        107.2180    1.6070  -11.8390 O.2    78  GLN78      -0.2864
     54  CB       107.1220    0.2440  -14.5670 C.3    78  GLN78       0.0394
     55  CG       106.8270   -0.8190  -15.6170 C.3    78  GLN78       0.0908
     56  CD       107.2160   -0.3080  -16.9920 C.2    78  GLN78       0.2608
     57  OE1      107.0480   -1.0040  -17.9940 O.2    78  GLN78      -0.2717
     58  NE2      107.7450    0.8720  -17.0900 N.am   78  GLN78      -0.0878
     59  N        109.8640    2.2140  -12.1440 N.3    80  SER80      -0.1202
     60  CA       110.2550    3.5410  -12.6130 C.3    80  SER80       0.2020
     61  C        109.0820    4.5110  -12.6370 C.2    80  SER80       0.2619
     62  O        109.2690    5.7270  -12.5830 O.2    80  SER80      -0.2717
     63  CB       110.8630    3.4490  -14.0040 C.3    80  SER80       0.2103
     64  OG       110.9870    4.7550  -14.5520 O.3    80  SER80      -0.2182
     65  N        107.8740    3.9750  -12.7380 N.am   81  GLN81      -0.1965
     66  CA       106.6740    4.8180  -12.7910 C.3    81  GLN81       0.1733
     67  C        106.0150    4.9670  -11.4210 C.2    81  GLN81       0.2616
     68  O        105.0830    5.7510  -11.2720 O.2    81  GLN81      -0.2715
     69  CB       105.6360    4.1930  -13.7220 C.3    81  GLN81       0.0408
     70  CG       106.2230    3.9290  -15.1010 C.3    81  GLN81       0.0908
     71  CD       106.6970    5.2310  -15.7330 C.2    81  GLN81       0.2608
     72  OE1      105.9010    6.1470  -15.9420 O.2    81  GLN81      -0.2717
     73  NE2      107.9560    5.3710  -16.0460 N.am   81  GLN81      -0.0878
     74  N        106.4590    4.1780  -10.4420 N.am   82  VAL82      -0.1963
     75  CA       105.8520    4.1920   -9.1070 C.3    82  VAL82       0.1727
     76  C        106.3380    5.3710   -8.2500 C.2    82  VAL82       0.2616
     77  O        107.3090    6.0440   -8.5960 O.2    82  VAL82      -0.2715
     78  CB       106.1510    2.8310   -8.4690 C.3    82  VAL82       0.0290
     79  CG1      107.4500    2.8650   -7.7140 C.3    82  VAL82       0.0023
     80  CG2      105.0500    2.4130   -7.5310 C.3    82  VAL82       0.0023
     81  N        105.6400    5.6190   -7.1310 N.am   83  ILE83      -0.1964
     82  CA       106.0100    6.7270   -6.2380 C.3    83  ILE83       0.1712
     83  C        107.4750    6.5370   -5.7870 C.2    83  ILE83       0.2458
     84  O        107.9250    5.4020   -5.6420 O.2    83  ILE83      -0.2730
     85  CB       105.0400    6.8130   -5.0100 C.3    83  ILE83       0.0289
     86  CG1      103.9080    5.8020   -5.1590 C.3    83  ILE83       0.0022
     87  CG2      104.4060    8.2210   -4.9030 C.3    83  ILE83       0.0023
     88  CD1      103.0170    5.8660   -3.9250 C.3    83  ILE83       0.0001
     89  N        108.2380    7.5970   -5.5720 N.am   84  PRO84      -0.2727
     90  CA       109.6680    7.4640   -5.1560 C.3    84  PRO84       0.1402
     91  C        109.8630    6.5000   -3.9950 C.2    84  PRO84       0.2269
     92  O        110.7620    5.6620   -4.0140 O.2    84  PRO84      -0.2865
     93  CB       110.0450    8.8780   -4.7110 C.3    84  PRO84       0.0296
     94  CG       109.1490    9.7880   -5.4760 C.3    84  PRO84       0.0237
     95  CD       107.8480    9.0190   -5.7000 C.3    84  PRO84       0.0939
     96  N        108.0350    4.0680   -3.0590 N.3    86  TRP86      -0.1241
     97  CA       107.7740    2.7450   -3.5960 C.3    86  TRP86       0.1605
     98  C        108.9170    2.3130   -4.5130 C.2    86  TRP86       0.2264
     99  O        109.2650    1.1410   -4.5750 O.2    86  TRP86      -0.2867
    100  CB       106.4690    2.7920   -4.3970 C.3    86  TRP86       0.0550
    101  CG       105.2730    2.5250   -3.5390 C.ar   86  TRP86       0.0003
    102  CD1      104.8510    3.2730   -2.4970 C.ar   86  TRP86       0.0946
    103  CD2      104.3160    1.4540   -3.6790 C.ar   86  TRP86       0.0152
    104  NE1      103.6830    2.7310   -2.0010 N.ar   86  TRP86      -0.2442
    105  CE2      103.3140    1.6040   -2.7020 C.ar   86  TRP86       0.0810
    106  CE3      104.2210    0.3770   -4.5580 C.ar   86  TRP86       0.0012
    107  CZ2      102.2530    0.7120   -2.6150 C.ar   86  TRP86       0.0191
    108  CZ3      103.1610   -0.5160   -4.4700 C.ar   86  TRP86       0.0001
    109  CH2      102.1730   -0.3510   -3.5030 C.ar   86  TRP86       0.0015
    110  N        107.4820   14.1810    0.5180 N.3   106  GLY106     -0.1225
    111  CA       108.4130   14.5100   -0.5570 C.3   106  GLY106      0.1811
    112  C        108.6360   13.3150   -1.4760 C.2   106  GLY106      0.2280
    113  O        108.8670   13.4750   -2.6750 O.2   106  GLY106     -0.2866
    114  N        106.3370   10.9040   -1.6860 N.3   108  ALA108     -0.1231
    115  CA       105.0060   10.3720   -1.9790 C.3   108  ALA108      0.1694
    116  C        104.2840   11.1890   -3.0570 C.2   108  ALA108      0.2592
    117  O        104.6790   11.1820   -4.2230 O.2   108  ALA108     -0.2718
    118  CB       104.1480   10.3760   -0.7130 C.3   108  ALA108      0.0304
    119  N        103.1930   11.8670   -2.6640 N.am  109  TYR109     -0.1976
    120  CA       102.3900   12.6460   -3.6030 C.3   109  TYR109      0.1639
    121  C        102.7340   14.1280   -3.5730 C.2   109  TYR109      0.2290
    122  O        102.1210   14.9230   -4.2870 O.2   109  TYR109     -0.2864
    123  CB       100.8970   12.4050   -3.3040 C.3   109  TYR109      0.0560
    124  CG       100.5820   11.0460   -3.8640 C.ar  109  TYR109     -0.0198
    125  CD1      100.6000    9.9340   -3.0330 C.ar  109  TYR109     -0.0009
    126  CD2      100.3900   10.8900   -5.2360 C.ar  109  TYR109     -0.0009
    127  CE1      100.4400    8.6720   -3.5640 C.ar  109  TYR109      0.0417
    128  CE2      100.2110    9.6220   -5.7730 C.ar  109  TYR109      0.0417
    129  CZ       100.2500    8.5080   -4.9320 C.ar  109  TYR109      0.1957
    130  OH       100.1250    7.2520   -5.4490 O.3   109  TYR109     -0.2866
    131  N         98.0760   17.0890   -3.1300 N.3   114  VAL114     -0.1245
    132  CA        98.0050   16.5620   -4.4950 C.3   114  VAL114      0.1561
    133  C         97.0910   15.3410   -4.5500 C.2   114  VAL114      0.2260
    134  O         97.5260   14.2380   -4.8820 O.2   114  VAL114     -0.2867
    135  CB        99.4120   16.2110   -5.0010 C.3   114  VAL114      0.0252
    136  CG1       99.3550   15.9320   -6.5050 C.3   114  VAL114      0.0019
    137  CG2      100.3590   17.3940   -4.7470 C.3   114  VAL114      0.0019
    138  N         93.6290   13.9240    0.4360 N.3   118  ILE118     -0.1245
    139  CA        95.0150   14.2410    0.7120 C.3   118  ILE118      0.1561
    140  C         95.1080   15.7500    0.7910 C.2   118  ILE118      0.2260
    141  O         94.8730   16.4520   -0.1910 O.2   118  ILE118     -0.2867
    142  CB        95.9440   13.7350   -0.4000 C.3   118  ILE118      0.0252
    143  CG1       95.8010   12.2060   -0.5670 C.3   118  ILE118      0.0019
    144  CG2       97.3890   14.0490   -0.0150 C.3   118  ILE118      0.0019
    145  CD1       94.6310   11.8350   -1.4970 C.3   118  ILE118      0.0001
    146  N        101.6730    3.1990    2.6070 N.3   126  PHE126     -0.1241
    147  CA       101.0090    2.1220    1.8930 C.3   126  PHE126      0.1605
    148  C        101.4980    0.7620    2.3570 C.2   126  PHE126      0.2264
    149  O        102.6510    0.6040    2.7620 O.2   126  PHE126     -0.2867
    150  CB       101.2390    2.2480    0.3930 C.3   126  PHE126      0.0534
    151  CG       101.2490    3.7000    0.0110 C.ar  126  PHE126     -0.0203
    152  CD1      100.1690    4.2590   -0.6850 C.ar  126  PHE126     -0.0042
    153  CD2      102.3460    4.4890    0.3510 C.ar  126  PHE126     -0.0042
    154  CE1      100.1960    5.6110   -1.0360 C.ar  126  PHE126     -0.0003
    155  CE2      102.3660    5.8350    0.0000 C.ar  126  PHE126     -0.0003
    156  CZ       101.2980    6.3940   -0.6900 C.ar  126  PHE126     -0.0000
@<TRIPOS>BOND
     1    57    56    2
     2    58    56   am
     3    56    55    1
     4    73    71   am
     5    72    71    2
     6    71    70    1
     7    55    54    1
     8    70    69    1
     9    54    51    1
    10    64    63    1
    11    63    60    1
    12    37    36    1
    13    38    36    1
    14    69    66    1
    15    51    50    1
    16    51    52    1
    17    36    33    1
    18    50    41   am
    19    66    65    1
    20    66    67    1
    21    65    61   am
    22    61    60    1
    23    61    62    2
    24    35    34    2
    25    60    59    1
    26    52    53    2
    27    41    42    2
    28    41    40    1
    29    34    33    1
    30    34    39   am
    31    33    32    1
    32    40    39    1
    33    40    43    1
    34    67    68    2
    35    67    74   am
    36    46    48   ar
    37    46    44   ar
    38    74    75    1
    39    43    44    1
    40    48    49   ar
    41    44    45   ar
    42    75    78    1
    43    75    76    1
    44    49    47   ar
    45    77    76    2
    46    78    79    1
    47    78    80    1
    48    45    47   ar
    49    76    81   am
    50    81    82    1
    51   136   135    1
    52    12    11    1
    53    82    83    1
    54    82    85    1
    55    83    84    2
    56    83    89   am
    57   128   126   ar
    58   128   129   ar
    59    95    89    1
    60    95    94    1
    61    89    90    1
    62    94    93    1
    63   130   129    1
    64    10    11   ar
    65    10     8   ar
    66    11     9   ar
    67   126   124   ar
    68    86    85    1
    69    86    88    1
    70    90    93    1
    71    90    91    1
    72    85    87    1
    73   135   137    1
    74   135   132    1
    75   129   127   ar
    76   134   133    2
    77    31    29   ar
    78    99    98    2
    79   106   108   ar
    80   106   103   ar
    81   133   132    1
    82    98    97    1
    83   132   131    1
    84   108   109   ar
    85   100    97    1
    86   100   101    1
    87   122   121    2
    88     8     6   ar
    89   117   116    2
    90     9     7   ar
    91    92    91    2
    92   124   123    1
    93   124   125   ar
    94    30    29   ar
    95    29    28    1
    96   103   101   ar
    97   103   105   ar
    98   120   121    1
    99   120   123    1
   100   120   119    1
   101    97    96    1
   102   127   125   ar
   103   101   102   ar
   104   109   107   ar
   105   116   119   am
   106   116   115    1
   107     6     7   ar
   108     6     5    1
   109   105   107   ar
   110   105   104   ar
   111   113   112    2
   112   102   104   ar
   113    28    25    1
   114     1     2    1
   115   115   114    1
   116   115   118    1
   117    16    15    2
   118     5     2    1
   119   145   143    1
   120   112   111    1
   121    22    20   ar
   122    22    23   ar
   123    25    26    1
   124    25    24    1
   125     4     3    2
   126    20    18   ar
   127     2     3    1
   128   154   156   ar
   129   154   152   ar
   130    26    27    2
   131   156   155   ar
   132   152   151   ar
   133    15    24   am
   134    15    14    1
   135   143   142    1
   136   111   110    1
   137   142   144    1
   138   142   139    1
   139    23    21   ar
   140   141   140    2
   141   155   153   ar
   142   151   153   ar
   143   151   150    1
   144    18    17    1
   145    18    19   ar
   146    17    14    1
   147   150   147    1
   148   138   139    1
   149    14    13    1
   150   139   140    1
   151    21    19   ar
   152   147   148    1
   153   147   146    1
   154   148   149    2
