@<TRIPOS>MOLECULE
tmp/2vceA01.pdb
 143 139 0 0 0
SMALL
GASTEIGER

@<TRIPOS>ATOM
      1  N          8.0550   33.2350   25.9490 N.3    13  GLY13      -0.1210
      2  CA         7.7880   31.9140   26.5560 C.3    13  GLY13       0.1956
      3  C          7.8430   31.9500   28.0820 C.2    13  GLY13       0.2611
      4  O          7.3640   31.0280   28.7410 O.2    13  GLY13      -0.2717
      5  N          8.4410   33.0100   28.6470 N.am   14  HIS14      -0.1975
      6  CA         8.4440   33.2110   30.0950 C.3    14  HIS14       0.1656
      7  C          7.3430   34.1850   30.5160 C.2    14  HIS14       0.2291
      8  O          6.6410   33.9420   31.4860 O.2    14  HIS14      -0.2864
      9  CB         9.7960   33.7070   30.6110 C.3    14  HIS14       0.0771
     10  CG        10.9600   32.8760   30.1810 C.ar   14  HIS14       0.0820
     11  ND1       12.2440   33.3640   30.1700 N.ar   14  HIS14      -0.2267
     12  CD2       11.0400   31.5970   29.7540 C.ar   14  HIS14       0.1154
     13  CE1       13.0650   32.4230   29.7420 C.ar   14  HIS14       0.1986
     14  NE2       12.3580   31.3400   29.4840 N.ar   14  HIS14      -0.2212
     15  N         21.7100   32.9870   23.8660 N.3    77  ILE77      -0.1231
     16  CA        20.5090   33.6170   24.4440 C.3    77  ILE77       0.1692
     17  C         20.4480   33.4680   25.9450 C.2    77  ILE77       0.2591
     18  O         20.0630   34.4020   26.6300 O.2    77  ILE77      -0.2718
     19  CB        19.2110   33.0560   23.8170 C.3    77  ILE77       0.0266
     20  CG1       19.0860   33.5640   22.3780 C.3    77  ILE77       0.0019
     21  CG2       17.9950   33.5120   24.6020 C.3    77  ILE77       0.0020
     22  CD1       18.8680   35.1070   22.2780 C.3    77  ILE77       0.0001
     23  N         20.8470   32.3080   26.4580 N.am   78  GLU78      -0.1979
     24  CA        20.7200   32.0590   27.9040 C.3    78  GLU78       0.1602
     25  C         21.6370   32.9860   28.7220 C.2    78  GLU78       0.2287
     26  O         21.2780   33.4240   29.8150 O.2    78  GLU78      -0.2864
     27  CB        20.9540   30.5790   28.2440 C.3    78  GLU78       0.0415
     28  CG        19.8460   29.6640   27.6460 C.3    78  GLU78       0.1163
     29  CD        20.1180   29.2230   26.2040 C.2    78  GLU78       0.3649
     30  OE1       21.1880   29.5390   25.6220 O.co2  78  GLU78      -0.2457
     31  OE2       19.2810   28.5090   25.6400 O.co2  78  GLU78      -0.2457
     32  N         19.9380   36.4870   28.5930 N.3    81  ILE81      -0.1245
     33  CA        18.7290   36.6720   29.4130 C.3    81  ILE81       0.1561
     34  C         18.9870   36.6110   30.9130 C.2    81  ILE81       0.2260
     35  O         18.3770   37.3840   31.6760 O.2    81  ILE81      -0.2867
     36  CB        17.5210   35.8310   28.9680 C.3    81  ILE81       0.0252
     37  CG1       17.7380   34.3590   29.2510 C.3    81  ILE81       0.0019
     38  CG2       17.2020   36.0920   27.4820 C.3    81  ILE81       0.0019
     39  CD1       16.5090   33.5090   29.1310 C.3    81  ILE81       0.0001
     40  N         13.2950   30.7180   35.5200 N.3   113  LEU113     -0.1231
     41  CA        14.3840   29.7470   35.6180 C.3   113  LEU113      0.1693
     42  C         15.7960   30.3390   35.4950 C.2   113  LEU113      0.2592
     43  O         16.7560   29.7420   35.9640 O.2   113  LEU113     -0.2718
     44  CB        14.1850   28.5790   34.6170 C.3   113  LEU113      0.0284
     45  CG        14.4900   28.7820   33.1150 C.3   113  LEU113      0.0019
     46  CD1       14.3240   27.4420   32.4120 C.3   113  LEU113      0.0001
     47  CD2       13.5370   29.7800   32.4680 C.3   113  LEU113      0.0001
     48  N         15.9090   31.5070   34.8460 N.am  114  PHE114     -0.1976
     49  CA        17.2300   32.1740   34.6470 C.3   114  PHE114      0.1639
     50  C         17.3760   33.4850   35.4280 C.2   114  PHE114      0.2290
     51  O         18.3470   34.2280   35.2380 O.2   114  PHE114     -0.2864
     52  CB        17.4840   32.4290   33.1520 C.3   114  PHE114      0.0560
     53  CG        17.6350   31.1580   32.3450 C.ar  114  PHE114     -0.0200
     54  CD1       18.6780   30.2630   32.6120 C.ar  114  PHE114     -0.0042
     55  CD2       16.7260   30.8580   31.3290 C.ar  114  PHE114     -0.0042
     56  CE1       18.8190   29.0710   31.8620 C.ar  114  PHE114     -0.0003
     57  CE2       16.8420   29.6720   30.6010 C.ar  114  PHE114     -0.0003
     58  CZ        17.9000   28.7950   30.8500 C.ar  114  PHE114     -0.0000
     59  N          8.9400   27.5160   34.0050 N.3   134  PRO134     -0.2102
     60  CA         8.0160   27.4840   32.8670 C.3   134  PRO134      0.1504
     61  C          8.1590   26.2700   31.9630 C.2   134  PRO134      0.2576
     62  O          7.4960   26.2220   30.9070 O.2   134  PRO134     -0.2718
     63  CB         8.3890   28.7600   32.1210 C.3   134  PRO134      0.0282
     64  CG         9.8520   28.7980   32.2850 C.3   134  PRO134      0.0208
     65  CD        10.0730   28.4250   33.7280 C.3   134  PRO134      0.0893
     66  N          8.9490   25.2820   32.3670 N.am  135  THR135     -0.1953
     67  CA         9.0580   24.0790   31.5580 C.3   135  THR135      0.1897
     68  C          8.9170   22.8100   32.4180 C.2   135  THR135      0.2313
     69  O          8.3640   22.8780   33.4890 O.2   135  THR135     -0.2863
     70  CB        10.2900   24.1290   30.5520 C.3   135  THR135      0.1794
     71  OG1       10.2560   22.9960   29.6680 O.3   135  THR135     -0.2208
     72  CG2       11.6470   24.1750   31.3180 C.3   135  THR135      0.0378
     73  N         12.7980   18.4770   33.0280 N.3   139  VAL139     -0.1245
     74  CA        13.9140   19.4320   32.9040 C.3   139  VAL139      0.1561
     75  C         14.2070   20.1390   34.2290 C.2   139  VAL139      0.2260
     76  O         15.3750   20.3590   34.5590 O.2   139  VAL139     -0.2867
     77  CB        13.7450   20.4070   31.7080 C.3   139  VAL139      0.0252
     78  CG1       14.8980   21.3490   31.6460 C.3   139  VAL139      0.0019
     79  CG2       13.6390   19.6100   30.4020 C.3   139  VAL139      0.0019
     80  N         17.9240   20.5100   36.0470 N.3   143  PHE143     -0.1241
     81  CA        18.4670   21.7550   36.6290 C.3   143  PHE143      0.1605
     82  C         18.8520   21.4590   38.0800 C.2   143  PHE143      0.2264
     83  O         19.9320   21.8140   38.5300 O.2   143  PHE143     -0.2867
     84  CB        17.3870   22.8610   36.6060 C.3   143  PHE143      0.0534
     85  CG        17.3500   23.6770   35.3140 C.ar  143  PHE143     -0.0203
     86  CD1       17.3390   23.0540   34.0730 C.ar  143  PHE143     -0.0042
     87  CD2       17.3280   25.0640   35.3600 C.ar  143  PHE143     -0.0042
     88  CE1       17.2710   23.8080   32.8930 C.ar  143  PHE143     -0.0003
     89  CE2       17.2810   25.8500   34.1780 C.ar  143  PHE143     -0.0003
     90  CZ        17.2640   25.2150   32.9530 C.ar  143  PHE143     -0.0000
     91  N         19.8630   20.0010   27.0080 N.3   178  LEU178     -0.1245
     92  CA        19.4730   21.3290   26.5570 C.3   178  LEU178      0.1561
     93  C         20.6910   22.1080   25.9790 C.2   178  LEU178      0.2260
     94  O         21.8490   21.9620   26.4610 O.2   178  LEU178     -0.2867
     95  CB        18.7460   22.0700   27.7130 C.3   178  LEU178      0.0270
     96  CG        19.5590   22.6430   28.8900 C.3   178  LEU178      0.0019
     97  CD1       18.7000   23.5570   29.7730 C.3   178  LEU178      0.0001
     98  CD2       20.2210   21.5810   29.7270 C.3   178  LEU178      0.0001
     99  N         22.1920   25.0950   26.1120 N.3   180  PRO180     -0.2116
    100  CA        23.2700   25.7720   26.8630 C.3   180  PRO180      0.1372
    101  C         24.2070   24.8480   27.6960 C.2   180  PRO180      0.2244
    102  O         25.2540   25.3100   28.1650 O.2   180  PRO180     -0.2868
    103  CB        22.4920   26.7560   27.7770 C.3   180  PRO180      0.0268
    104  CG        21.1660   26.0010   28.0330 C.3   180  PRO180      0.0207
    105  CD        20.8490   25.4080   26.6730 C.3   180  PRO180      0.0892
    106  N         14.5380   35.0880   18.5180 N.3   305  TYR305     -0.1241
    107  CA        14.1610   35.0480   19.9530 C.3   305  TYR305      0.1605
    108  C         13.6200   36.3710   20.5090 C.2   305  TYR305      0.2264
    109  O         12.6430   36.3920   21.2600 O.2   305  TYR305     -0.2867
    110  CB        15.3300   34.5590   20.8070 C.3   305  TYR305      0.0534
    111  CG        14.9360   34.3280   22.2660 C.ar  305  TYR305     -0.0201
    112  CD1       14.4390   33.1040   22.6900 C.ar  305  TYR305     -0.0009
    113  CD2       15.0670   35.3530   23.2120 C.ar  305  TYR305     -0.0009
    114  CE1       14.0770   32.9010   24.0440 C.ar  305  TYR305      0.0417
    115  CE2       14.7000   35.1650   24.5610 C.ar  305  TYR305      0.0417
    116  CZ        14.2240   33.9460   24.9610 C.ar  305  TYR305      0.1957
    117  OH        13.8970   33.7690   26.2770 O.3   305  TYR305     -0.2866
    118  N         15.8510   24.1900   19.6390 N.3   372  TYR372     -0.1227
    119  CA        16.8750   24.7850   20.5210 C.3   372  TYR372      0.1736
    120  C         16.4860   24.6560   22.0020 C.2   372  TYR372      0.2595
    121  O         15.5400   23.9240   22.3460 O.2   372  TYR372     -0.2718
    122  CB        17.1510   26.2790   20.1260 C.3   372  TYR372      0.0548
    123  CG        15.9310   27.1670   20.1650 C.ar  372  TYR372     -0.0200
    124  CD1       15.6290   27.9550   21.3020 C.ar  372  TYR372     -0.0009
    125  CD2       15.1000   27.2850   19.0480 C.ar  372  TYR372     -0.0009
    126  CE1       14.5100   28.7590   21.3320 C.ar  372  TYR372      0.0417
    127  CE2       13.9840   28.0990   19.0680 C.ar  372  TYR372      0.0417
    128  CZ        13.6940   28.8420   20.2190 C.ar  372  TYR372      0.1957
    129  OH        12.5640   29.6460   20.2490 O.3   372  TYR372     -0.2866
    130  N         17.2170   25.3390   22.8910 N.am  373  ALA373     -0.1966
    131  CA        16.9070   25.3240   24.3150 C.3   373  ALA373      0.1728
    132  C         16.7980   23.8580   24.7910 C.2   373  ALA373      0.2616
    133  O         17.6230   23.0350   24.3720 O.2   373  ALA373     -0.2715
    134  CB        15.6210   26.1500   24.5810 C.3   373  ALA373      0.0334
    135  N         15.7910   23.5360   25.6260 N.am  374  GLU374     -0.1977
    136  CA        15.5100   22.1730   26.1020 C.3   374  GLU374      0.1602
    137  C         14.5050   21.3670   25.2320 C.2   374  GLU374      0.2287
    138  O         14.0010   20.3350   25.6730 O.2   374  GLU374     -0.2864
    139  CB        15.0430   22.2250   27.5820 C.3   374  GLU374      0.0415
    140  CG        13.5220   22.3930   27.9050 C.3   374  GLU374      0.1163
    141  CD        12.8280   23.6680   27.3480 C.2   374  GLU374      0.3649
    142  OE1       13.4720   24.5300   26.7190 O.co2 374  GLU374     -0.2457
    143  OE2       11.6120   23.8140   27.5360 O.co2 374  GLU374     -0.2457
@<TRIPOS>BOND
     1   106   107    1
     2   125   127   ar
     3   125   123   ar
     4   127   128   ar
     5   118   119    1
     6   107   108    1
     7   107   110    1
     8   122   123    1
     9   122   119    1
    10   123   124   ar
    11   128   129    1
    12   128   126   ar
    13   108   109    2
    14   119   120    1
    15   110   111    1
    16   124   126   ar
    17   120   121    2
    18   120   130   am
    19   111   112   ar
    20   111   113   ar
    21    22    20    1
    22    20    19    1
    23   112   114   ar
    24   130   131    1
    25   113   115   ar
    26    19    16    1
    27    19    21    1
    28    15    16    1
    29   114   116   ar
    30   131   134    1
    31   131   132    1
    32   133   132    2
    33    16    17    1
    34   115   116   ar
    35   132   135   am
    36   116   117    1
    37   137   138    2
    38   137   136    1
    39    30    29   ar
    40   135   136    1
    41    31    29   ar
    42    17    23   am
    43    17    18    2
    44     1     2    1
    45    93    94    2
    46    93    92    1
    47   136   139    1
    48    99   105    1
    49    99   100    1
    50    29    28    1
    51    23    24    1
    52     2     3    1
    53    92    91    1
    54    92    95    1
    55   105   104    1
    56   142   141   ar
    57   100   101    1
    58   100   103    1
    59   141   143   ar
    60   141   140    1
    61    38    36    1
    62   139   140    1
    63    28    27    1
    64   101   102    2
    65    95    96    1
    66   103   104    1
    67    24    27    1
    68    24    25    1
    69     3     5   am
    70     3     4    2
    71    32    33    1
    72     5     6    1
    73    25    26    2
    74    96    98    1
    75    96    97    1
    76    36    37    1
    77    36    33    1
    78    39    37    1
    79    33    34    1
    80    14    13   ar
    81    14    12   ar
    82    71    70    1
    83    13    11   ar
    84    12    10   ar
    85     6     7    1
    86     6     9    1
    87    11    10   ar
    88    10     9    1
    89    79    77    1
    90     7     8    2
    91    70    72    1
    92    70    67    1
    93    57    58   ar
    94    57    55   ar
    95    58    56   ar
    96    62    61    2
    97    34    35    2
    98    55    53   ar
    99    67    66    1
   100    67    68    1
   101    78    77    1
   102    77    74    1
   103    56    54   ar
   104    61    66   am
   105    61    60    1
   106    63    64    1
   107    63    60    1
   108    64    65    1
   109    53    54   ar
   110    53    52    1
   111    46    45    1
   112    68    69    2
   113    47    45    1
   114    60    59    1
   115    88    90   ar
   116    88    86   ar
   117    74    73    1
   118    74    75    1
   119    90    89   ar
   120    45    44    1
   121    52    49    1
   122    65    59    1
   123    86    85   ar
   124    89    87   ar
   125    75    76    2
   126    44    41    1
   127    49    48    1
   128    49    50    1
   129    48    42   am
   130    51    50    2
   131    85    87   ar
   132    85    84    1
   133    42    41    1
   134    42    43    2
   135    40    41    1
   136    80    81    1
   137    84    81    1
   138    81    82    1
   139    82    83    2
