@<TRIPOS>MOLECULE
tmp/2vceA00.pdb
 239 236 0 0 0
SMALL
GASTEIGER

@<TRIPOS>ATOM
      1  N          8.0550   33.2350   25.9490 N.3    13  GLY13      -0.1210
      2  CA         7.7880   31.9140   26.5560 C.3    13  GLY13       0.1956
      3  C          7.8430   31.9500   28.0820 C.2    13  GLY13       0.2611
      4  O          7.3640   31.0280   28.7410 O.2    13  GLY13      -0.2717
      5  N          8.4410   33.0100   28.6470 N.am   14  HIS14      -0.1975
      6  CA         8.4440   33.2110   30.0950 C.3    14  HIS14       0.1656
      7  C          7.3430   34.1850   30.5160 C.2    14  HIS14       0.2291
      8  O          6.6410   33.9420   31.4860 O.2    14  HIS14      -0.2864
      9  CB         9.7960   33.7070   30.6110 C.3    14  HIS14       0.0771
     10  CG        10.9600   32.8760   30.1810 C.ar   14  HIS14       0.0820
     11  ND1       12.2440   33.3640   30.1700 N.ar   14  HIS14      -0.2267
     12  CD2       11.0400   31.5970   29.7540 C.ar   14  HIS14       0.1154
     13  CE1       13.0650   32.4230   29.7420 C.ar   14  HIS14       0.1986
     14  NE2       12.3580   31.3400   29.4840 N.ar   14  HIS14      -0.2212
     15  N          4.4260   34.9590   28.9760 N.3    16  ILE16      -0.1245
     16  CA         3.0540   34.4720   28.7850 C.3    16  ILE16       0.1561
     17  C          2.5500   33.5720   29.9540 C.2    16  ILE16       0.2260
     18  O          1.4630   33.8080   30.5040 O.2    16  ILE16      -0.2867
     19  CB         2.8830   33.7780   27.3660 C.3    16  ILE16       0.0252
     20  CG1        2.7940   34.8470   26.2490 C.3    16  ILE16       0.0019
     21  CG2        1.6390   32.8490   27.2970 C.3    16  ILE16       0.0019
     22  CD1        3.2430   34.3430   24.8510 C.3    16  ILE16       0.0001
     23  N         13.2950   30.7180   35.5200 N.3   113  LEU113     -0.1245
     24  CA        14.3840   29.7470   35.6180 C.3   113  LEU113      0.1561
     25  C         15.7960   30.3390   35.4950 C.2   113  LEU113      0.2260
     26  O         16.7560   29.7420   35.9640 O.2   113  LEU113     -0.2867
     27  CB        14.1850   28.5790   34.6170 C.3   113  LEU113      0.0270
     28  CG        14.4900   28.7820   33.1150 C.3   113  LEU113      0.0019
     29  CD1       14.3240   27.4420   32.4120 C.3   113  LEU113      0.0001
     30  CD2       13.5370   29.7800   32.4680 C.3   113  LEU113      0.0001
     31  N          8.9400   27.5160   34.0050 N.3   134  PRO134     -0.2102
     32  CA         8.0160   27.4840   32.8670 C.3   134  PRO134      0.1504
     33  C          8.1590   26.2700   31.9630 C.2   134  PRO134      0.2576
     34  O          7.4960   26.2220   30.9070 O.2   134  PRO134     -0.2718
     35  CB         8.3890   28.7600   32.1210 C.3   134  PRO134      0.0282
     36  CG         9.8520   28.7980   32.2850 C.3   134  PRO134      0.0208
     37  CD        10.0730   28.4250   33.7280 C.3   134  PRO134      0.0893
     38  N          8.9490   25.2820   32.3670 N.am  135  THR135     -0.1953
     39  CA         9.0580   24.0790   31.5580 C.3   135  THR135      0.1897
     40  C          8.9170   22.8100   32.4180 C.2   135  THR135      0.2313
     41  O          8.3640   22.8780   33.4890 O.2   135  THR135     -0.2863
     42  CB        10.2900   24.1290   30.5520 C.3   135  THR135      0.1794
     43  OG1       10.2560   22.9960   29.6680 O.3   135  THR135     -0.2208
     44  CG2       11.6470   24.1750   31.3180 C.3   135  THR135      0.0378
     45  N         -1.5640   22.4930   12.2510 N.3   262  TYR262     -0.1241
     46  CA        -0.9400   23.7570   12.5920 C.3   262  TYR262      0.1605
     47  C          0.5590   23.5250   12.6590 C.2   262  TYR262      0.2264
     48  O          1.0020   22.5210   13.2240 O.2   262  TYR262     -0.2867
     49  CB        -1.4860   24.2330   13.9630 C.3   262  TYR262      0.0534
     50  CG        -0.9090   25.5030   14.4910 C.ar  262  TYR262     -0.0201
     51  CD1       -0.9480   26.6930   13.7350 C.ar  262  TYR262     -0.0009
     52  CD2       -0.3230   25.5320   15.7520 C.ar  262  TYR262     -0.0009
     53  CE1       -0.4050   27.8830   14.2280 C.ar  262  TYR262      0.0417
     54  CE2        0.2150   26.7360   16.2700 C.ar  262  TYR262      0.0417
     55  CZ         0.1820   27.8870   15.5040 C.ar  262  TYR262      0.1957
     56  OH         0.6860   29.0700   16.0150 O.3   262  TYR262     -0.2866
     57  N          4.0910   25.5750   13.7650 N.3   264  SER264     -0.1217
     58  CA         4.6850   26.7700   14.3810 C.3   264  SER264      0.1889
     59  C          5.8880   26.3880   15.2320 C.2   264  SER264      0.2288
     60  O          5.8570   25.3790   15.9590 O.2   264  SER264     -0.2866
     61  CB         3.6670   27.5060   15.2720 C.3   264  SER264      0.2089
     62  OG         4.2590   28.6730   15.8470 O.3   264  SER264     -0.2183
     63  N          7.4260   28.3280   17.6930 N.3   266  GLY266     -0.1210
     64  CA         7.5300   29.1330   18.9010 C.3   266  GLY266      0.1956
     65  C          7.5910   30.6130   18.6580 C.2   266  GLY266      0.2612
     66  O          7.3180   31.1060   17.5500 O.2   266  GLY266     -0.2717
     67  N          8.0120   31.3300   19.6950 N.am  267  SER267     -0.1952
     68  CA         8.1880   32.7400   19.5930 C.3   267  SER267      0.1924
     69  C          9.5030   33.1060   18.9000 C.2   267  SER267      0.2314
     70  O          9.5640   34.1610   18.2730 O.2   267  SER267     -0.2863
     71  CB         7.9940   33.4440   20.9600 C.3   267  SER267      0.2116
     72  OG         9.0660   33.1560   21.8130 O.3   267  SER267     -0.2180
     73  N          2.8610   29.0410   10.4030 N.3   293  VAL293     -0.1245
     74  CA         3.4330   30.3270   10.7560 C.3   293  VAL293      0.1561
     75  C          4.8910   30.3160   10.3420 C.2   293  VAL293      0.2260
     76  O          5.6950   29.6040   10.9310 O.2   293  VAL293     -0.2867
     77  CB         3.3670   30.5920   12.2980 C.3   293  VAL293      0.0252
     78  CG1        3.8410   32.0000   12.5900 C.3   293  VAL293      0.0019
     79  CG2        1.9520   30.3530   12.8400 C.3   293  VAL293      0.0019
     80  N          8.7070   31.8840    9.3890 N.3   295  ARG295     -0.1245
     81  CA         9.7770   32.9040    9.5270 C.3   295  ARG295      0.1563
     82  C         10.8820   32.6680    8.5130 C.2   295  ARG295      0.2260
     83  O         11.0740   31.5400    8.0620 O.2   295  ARG295     -0.2867
     84  CB        10.3400   32.9090   10.9430 C.3   295  ARG295      0.0307
     85  CG         9.3710   33.5150   11.9350 C.3   295  ARG295      0.0489
     86  CD         9.9240   33.4910   13.3830 C.3   295  ARG295      0.2205
     87  NE         8.7750   33.6670   14.2620 N.pl3 295  ARG295     -0.0865
     88  CZ         8.2860   32.7310   15.0570 C.cat 295  ARG295      0.5346
     89  NH1        8.8990   31.5460   15.2040 N.pl3 295  ARG295      0.1354
     90  NH2        7.2000   33.0220   15.7700 N.pl3 295  ARG295      0.1354
     91  N         14.5380   35.0880   18.5180 N.3   305  TYR305     -0.1241
     92  CA        14.1610   35.0480   19.9530 C.3   305  TYR305      0.1605
     93  C         13.6200   36.3710   20.5090 C.2   305  TYR305      0.2264
     94  O         12.6430   36.3920   21.2600 O.2   305  TYR305     -0.2867
     95  CB        15.3300   34.5590   20.8070 C.3   305  TYR305      0.0534
     96  CG        14.9360   34.3280   22.2660 C.ar  305  TYR305     -0.0201
     97  CD1       14.4390   33.1040   22.6900 C.ar  305  TYR305     -0.0009
     98  CD2       15.0670   35.3530   23.2120 C.ar  305  TYR305     -0.0009
     99  CE1       14.0770   32.9010   24.0440 C.ar  305  TYR305      0.0417
    100  CE2       14.7000   35.1650   24.5610 C.ar  305  TYR305      0.0417
    101  CZ        14.2240   33.9460   24.9610 C.ar  305  TYR305      0.1957
    102  OH        13.8970   33.7690   26.2770 O.3   305  TYR305     -0.2866
    103  N          5.4410   35.2040   10.5280 N.3   331  PHE331     -0.1227
    104  CA         5.8510   35.7810   11.8180 C.3   331  PHE331      0.1736
    105  C          5.0700   35.3410   13.0550 C.2   331  PHE331      0.2595
    106  O          5.6680   34.9490   14.0500 O.2   331  PHE331     -0.2718
    107  CB         5.8470   37.3420   11.7740 C.3   331  PHE331      0.0547
    108  CG         6.5350   37.9550   10.5470 C.ar  331  PHE331     -0.0202
    109  CD1        7.8430   37.5850   10.1770 C.ar  331  PHE331     -0.0042
    110  CD2        5.8690   38.9300    9.7890 C.ar  331  PHE331     -0.0042
    111  CE1        8.4850   38.1910    9.0550 C.ar  331  PHE331     -0.0003
    112  CE2        6.4790   39.5210    8.6800 C.ar  331  PHE331     -0.0003
    113  CZ         7.7860   39.1480    8.3170 C.ar  331  PHE331     -0.0000
    114  N          3.7520   35.4540   13.0210 N.am  332  TRP332     -0.1962
    115  CA         2.9260   35.2890   14.2410 C.3   332  TRP332      0.1771
    116  C          1.4700   34.9630   13.9090 C.2   332  TRP332      0.2619
    117  O          0.8600   35.5810   13.0270 O.2   332  TRP332     -0.2715
    118  CB         2.9720   36.5700   15.1090 C.3   332  TRP332      0.0590
    119  CG         2.4500   36.3980   16.5540 C.ar  332  TRP332      0.0006
    120  CD1        1.1790   36.6700   17.0250 C.ar  332  TRP332      0.0946
    121  CD2        3.2000   35.9210   17.6840 C.ar  332  TRP332      0.0152
    122  NE1        1.1100   36.3810   18.3730 N.ar  332  TRP332     -0.2442
    123  CE2        2.3350   35.9360   18.8020 C.ar  332  TRP332      0.0810
    124  CE3        4.5190   35.4650   17.8520 C.ar  332  TRP332      0.0012
    125  CZ2        2.7530   35.5180   20.0860 C.ar  332  TRP332      0.0191
    126  CZ3        4.9300   35.0520   19.1270 C.ar  332  TRP332      0.0001
    127  CH2        4.0490   35.0790   20.2210 C.ar  332  TRP332      0.0015
    128  N          0.9150   33.9910   14.6060 N.am  333  ALA333     -0.1964
    129  CA        -0.5070   33.6670   14.5070 C.3   333  ALA333      0.1713
    130  C         -1.1790   33.7020   15.8820 C.2   333  ALA333      0.2458
    131  O         -0.5010   33.5820   16.9160 O.2   333  ALA333     -0.2730
    132  CB        -0.7020   32.2780   13.8710 C.3   333  ALA333      0.0333
    133  N         -2.5170   33.8540   15.9040 N.am  334  PRO334     -0.2716
    134  CA        -3.2290   33.7480   17.1710 C.3   334  PRO334      0.1536
    135  C         -3.2990   32.2620   17.6040 C.2   334  PRO334      0.2598
    136  O         -4.3150   31.5940   17.3910 O.2   334  PRO334     -0.2715
    137  CB        -4.6090   34.3300   16.8450 C.3   334  PRO334      0.0310
    138  CG        -4.7970   34.0910   15.3690 C.3   334  PRO334      0.0237
    139  CD        -3.4130   34.1360   14.7500 C.3   334  PRO334      0.0939
    140  N         -2.1830   31.7560   18.1450 N.am  335  GLN335     -0.1964
    141  CA        -2.0130   30.3320   18.3730 C.3   335  GLN335      0.1733
    142  C         -3.0520   29.7740   19.3300 C.2   335  GLN335      0.2616
    143  O         -3.6130   28.6810   19.0910 O.2   335  GLN335     -0.2715
    144  CB        -0.6130   30.0260   18.9290 C.3   335  GLN335      0.0408
    145  CG        -0.4030   28.5180   19.2350 C.3   335  GLN335      0.0908
    146  CD         1.0460   28.1810   19.3840 C.2   335  GLN335      0.2608
    147  OE1        1.8940   28.6100   18.5550 O.2   335  GLN335     -0.2717
    148  NE2        1.3660   27.4170   20.4230 N.am  335  GLN335     -0.0878
    149  N         -3.3110   30.4890   20.4370 N.am  336  ALA336     -0.1977
    150  CA        -4.2910   29.9640   21.4080 C.3   336  ALA336      0.1597
    151  C         -5.6230   29.6710   20.7390 C.2   336  ALA336      0.2287
    152  O         -6.2310   28.6240   20.9820 O.2   336  ALA336     -0.2864
    153  CB        -4.4860   30.9490   22.5760 C.3   336  ALA336      0.0319
    154  N          7.8220   23.0050   17.7950 N.3   350  HIS350     -0.1241
    155  CA         9.2120   22.9290   18.2490 C.3   350  HIS350      0.1621
    156  C          9.3300   22.3920   19.6760 C.2   350  HIS350      0.2264
    157  O         10.4360   22.2350   20.1750 O.2   350  HIS350     -0.2867
    158  CB         9.9190   24.3140   18.1150 C.3   350  HIS350      0.0745
    159  CG         9.5210   25.3250   19.1690 C.ar  350  HIS350      0.0817
    160  ND1        8.2330   25.4670   19.6140 N.ar  350  HIS350     -0.2268
    161  CD2       10.2510   26.2670   19.8250 C.ar  350  HIS350      0.1154
    162  CE1        8.1840   26.4240   20.5260 C.ar  350  HIS350      0.1986
    163  NE2        9.3920   26.9340   20.6620 N.ar  350  HIS350     -0.2212
    164  N          8.3480   23.7560   22.4830 N.3   352  GLY352     -0.1210
    165  CA         8.2620   24.8340   23.4970 C.3   352  GLY352      0.1956
    166  C          7.1940   24.4070   24.4940 C.2   352  GLY352      0.2612
    167  O          6.1780   23.8220   24.0960 O.2   352  GLY352     -0.2717
    168  N          7.4070   24.6580   25.7860 N.am  353  TRP353     -0.1962
    169  CA         6.5090   24.0070   26.7180 C.3   353  TRP353      0.1771
    170  C          5.1270   24.6810   26.7070 C.2   353  TRP353      0.2620
    171  O          4.1430   24.0110   26.9160 O.2   353  TRP353     -0.2715
    172  CB         7.1020   23.9360   28.1560 C.3   353  TRP353      0.0590
    173  CG         6.3540   22.9860   29.0490 C.ar  353  TRP353      0.0006
    174  CD1        5.7400   23.2600   30.2380 C.ar  353  TRP353      0.0946
    175  CD2        6.1740   21.5730   28.8280 C.ar  353  TRP353      0.0152
    176  NE1        5.1800   22.1150   30.7680 N.ar  353  TRP353     -0.2442
    177  CE2        5.4310   21.0710   29.9170 C.ar  353  TRP353      0.0810
    178  CE3        6.5600   20.6980   27.8000 C.ar  353  TRP353      0.0012
    179  CZ2        5.0670   19.7170   30.0180 C.ar  353  TRP353      0.0191
    180  CZ3        6.2270   19.3440   27.9120 C.ar  353  TRP353      0.0001
    181  CH2        5.4650   18.8730   28.9870 C.ar  353  TRP353      0.0015
    182  N          5.0500   25.9990   26.4690 N.am  354  ASN354     -0.1958
    183  CA         3.7410   26.6760   26.4190 C.3   354  ASN354      0.1819
    184  C          2.9220   26.1620   25.2720 C.2   354  ASN354      0.2622
    185  O          1.7480   25.8850   25.4770 O.2   354  ASN354     -0.2715
    186  CB         3.8620   28.1970   26.3220 C.3   354  ASN354      0.1195
    187  CG         4.5380   28.7530   27.4990 C.2   354  ASN354      0.2630
    188  OD1        3.9590   28.7720   28.5620 O.2   354  ASN354     -0.2716
    189  ND2        5.7830   29.1940   27.3390 N.am  354  ASN354     -0.0877
    190  N          3.5480   25.9720   24.1090 N.am  355  SER355     -0.1950
    191  CA         2.8440   25.3950   22.9390 C.3   355  SER355      0.1924
    192  C          2.3950   23.9860   23.2980 C.2   355  SER355      0.2314
    193  O          1.2780   23.5770   22.9610 O.2   355  SER355     -0.2863
    194  CB         3.7910   25.3290   21.7210 C.3   355  SER355      0.2116
    195  OG         4.0510   26.6490   21.2440 O.3   355  SER355     -0.2180
    196  N         -0.6560   24.2020   25.6790 N.3   358  GLU358     -0.1245
    197  CA        -1.8210   24.6570   24.9260 C.3   358  GLU358      0.1567
    198  C         -2.4070   23.5090   24.1320 C.2   358  GLU358      0.2260
    199  O         -3.6490   23.3380   24.0790 O.2   358  GLU358     -0.2867
    200  CB        -1.4540   25.8100   24.0240 C.3   358  GLU358      0.0388
    201  CG        -1.1410   27.0470   24.8660 C.3   358  GLU358      0.1160
    202  CD        -0.4010   28.1500   24.1420 C.2   358  GLU358      0.3649
    203  OE1       -0.1250   28.0650   22.9300 O.co2 358  GLU358     -0.2457
    204  OE2       -0.0720   29.1370   24.8400 O.co2 358  GLU358     -0.2457
    205  N         15.8510   24.1900   19.6390 N.3   372  TYR372     -0.1227
    206  CA        16.8750   24.7850   20.5210 C.3   372  TYR372      0.1736
    207  C         16.4860   24.6560   22.0020 C.2   372  TYR372      0.2595
    208  O         15.5400   23.9240   22.3460 O.2   372  TYR372     -0.2718
    209  CB        17.1510   26.2790   20.1260 C.3   372  TYR372      0.0548
    210  CG        15.9310   27.1670   20.1650 C.ar  372  TYR372     -0.0200
    211  CD1       15.6290   27.9550   21.3020 C.ar  372  TYR372     -0.0009
    212  CD2       15.1000   27.2850   19.0480 C.ar  372  TYR372     -0.0009
    213  CE1       14.5100   28.7590   21.3320 C.ar  372  TYR372      0.0417
    214  CE2       13.9840   28.0990   19.0680 C.ar  372  TYR372      0.0417
    215  CZ        13.6940   28.8420   20.2190 C.ar  372  TYR372      0.1957
    216  OH        12.5640   29.6460   20.2490 O.3   372  TYR372     -0.2866
    217  N         17.2170   25.3390   22.8910 N.am  373  ALA373     -0.1966
    218  CA        16.9070   25.3240   24.3150 C.3   373  ALA373      0.1728
    219  C         16.7980   23.8580   24.7910 C.2   373  ALA373      0.2616
    220  O         17.6230   23.0350   24.3720 O.2   373  ALA373     -0.2715
    221  CB        15.6210   26.1500   24.5810 C.3   373  ALA373      0.0334
    222  N         15.7910   23.5360   25.6260 N.am  374  GLU374     -0.1963
    223  CA        15.5100   22.1730   26.1020 C.3   374  GLU374      0.1733
    224  C         14.5050   21.3670   25.2320 C.2   374  GLU374      0.2616
    225  O         14.0010   20.3350   25.6730 O.2   374  GLU374     -0.2715
    226  CB        15.0430   22.2250   27.5820 C.3   374  GLU374      0.0429
    227  CG        13.5220   22.3930   27.9050 C.3   374  GLU374      0.1163
    228  CD        12.8280   23.6680   27.3480 C.2   374  GLU374      0.3649
    229  OE1       13.4720   24.5300   26.7190 O.co2 374  GLU374     -0.2457
    230  OE2       11.6120   23.8140   27.5360 O.co2 374  GLU374     -0.2457
    231  N         14.2660   21.8020   23.9890 N.am  375  GLN375     -0.1977
    232  CA        13.2070   21.2010   23.1790 C.3   375  GLN375      0.1601
    233  C         13.4560   19.7300   22.8870 C.2   375  GLN375      0.2287
    234  O         12.5240   18.9330   22.8940 O.2   375  GLN375     -0.2864
    235  CB        12.9750   22.0020   21.8930 C.3   375  GLN375      0.0394
    236  CG        12.2690   23.3270   22.2080 C.3   375  GLN375      0.0908
    237  CD        12.7580   24.4730   21.3380 C.2   375  GLN375      0.2608
    238  OE1       13.0720   24.2710   20.1730 O.2   375  GLN375     -0.2717
    239  NE2       12.7820   25.7020   21.8910 N.am  375  GLN375     -0.0878
@<TRIPOS>BOND
     1    83    82    2
     2   113   112   ar
     3   113   111   ar
     4    82    81    1
     5   112   110   ar
     6   111   109   ar
     7    80    81    1
     8    81    84    1
     9   110   108   ar
    10   109   108   ar
    11    75    74    1
    12    75    76    2
    13    73    74    1
    14   103   104    1
    15   108   107    1
    16    74    77    1
    17    84    85    1
    18   107   104    1
    19   104   105    1
    20    85    86    1
    21    45    46    1
    22    77    78    1
    23    77    79    1
    24    46    47    1
    25    46    49    1
    26    47    48    2
    27   114   105   am
    28   114   115    1
    29   117   116    2
    30   105   106    2
    31    86    87    1
    32    51    53   ar
    33    51    50   ar
    34    57    58    1
    35   132   129    1
    36   116   115    1
    37   116   128   am
    38    49    50    1
    39    53    55   ar
    40   115   118    1
    41    87    88    2
    42    58    59    1
    43    58    61    1
    44    50    52   ar
    45   129   128    1
    46   129   130    1
    47   139   138    1
    48   139   133    1
    49    88    89    1
    50    88    90    1
    51   118   119    1
    52    59    60    2
    53    61    62    1
    54   138   137    1
    55    55    56    1
    56    55    54   ar
    57    52    54   ar
    58   130   133   am
    59   130   131    2
    60   133   134    1
    61   119   120   ar
    62   119   121   ar
    63   137   134    1
    64   120   122   ar
    65   134   135    1
    66   136   135    2
    67    66    65    2
    68   135   140   am
    69   121   124   ar
    70   121   123   ar
    71    63    64    1
    72   154   155    1
    73   124   126   ar
    74   158   155    1
    75   158   159    1
    76   140   141    1
    77   155   156    1
    78    70    69    2
    79   122   123   ar
    80   141   144    1
    81   141   142    1
    82    91    92    1
    83   147   146    2
    84    65    64    1
    85    65    67   am
    86   123   125   ar
    87    69    68    1
    88   144   145    1
    89   212   214   ar
    90   212   210   ar
    91   214   215   ar
    92   143   142    2
    93   126   127   ar
    94   159   160   ar
    95   159   161   ar
    96   145   146    1
    97   142   149   am
    98   146   148   am
    99    68    67    1
   100    68    71    1
   101   160   162   ar
   102   205   206    1
   103   156   157    2
   104   161   163   ar
   105    92    93    1
   106    92    95    1
   107   125   127   ar
   108   209   210    1
   109   209   206    1
   110   210   211   ar
   111   238   237    2
   112   215   216    1
   113   215   213   ar
   114   149   150    1
   115    93    94    2
   116   206   207    1
   117   162   163   ar
   118   151   152    2
   119   151   150    1
   120    95    96    1
   121    71    72    1
   122   195   194    1
   123   211   213   ar
   124   237   239   am
   125   237   236    1
   126   150   153    1
   127   194   191    1
   128   235   236    1
   129   235   232    1
   130   207   208    2
   131   207   217   am
   132    96    97   ar
   133    96    98   ar
   134   164   165    1
   135    97    99   ar
   136   233   234    2
   137   233   232    1
   138   217   218    1
   139   203   202   ar
   140   191   192    1
   141   191   190    1
   142   193   192    2
   143   232   231    1
   144    98   100   ar
   145   165   166    1
   146   231   224   am
   147   200   201    1
   148   200   197    1
   149    99   101   ar
   150   199   198    2
   151   167   166    2
   152   190   184   am
   153   198   197    1
   154   202   204   ar
   155   202   201    1
   156   218   221    1
   157   218   219    1
   158   220   219    2
   159   166   168   am
   160   100   101   ar
   161   219   222   am
   162    22    20    1
   163   197   196    1
   164   101   102    1
   165   224   225    2
   166   224   223    1
   167   184   185    2
   168   184   183    1
   169   222   223    1
   170   168   169    1
   171     1     2    1
   172   223   226    1
   173    20    19    1
   174   186   183    1
   175   186   187    1
   176   183   182    1
   177   182   170   am
   178     2     3    1
   179   170   169    1
   180   170   171    2
   181   169   172    1
   182   229   228   ar
   183    21    19    1
   184   189   187   am
   185   228   230   ar
   186   228   227    1
   187    19    16    1
   188   187   188    2
   189   226   227    1
   190   178   180   ar
   191   178   175   ar
   192   180   181   ar
   193     3     5   am
   194     3     4    2
   195   172   173    1
   196     5     6    1
   197    16    15    1
   198    16    17    1
   199   175   173   ar
   200   175   177   ar
   201   181   179   ar
   202   173   174   ar
   203    14    13   ar
   204    14    12   ar
   205    43    42    1
   206    13    11   ar
   207    12    10   ar
   208   177   179   ar
   209   177   176   ar
   210    17    18    2
   211     6     7    1
   212     6     9    1
   213    11    10   ar
   214    10     9    1
   215   174   176   ar
   216     7     8    2
   217    42    44    1
   218    42    39    1
   219    34    33    2
   220    39    38    1
   221    39    40    1
   222    33    38   am
   223    33    32    1
   224    35    36    1
   225    35    32    1
   226    36    37    1
   227    29    28    1
   228    40    41    2
   229    30    28    1
   230    32    31    1
   231    28    27    1
   232    37    31    1
   233    27    24    1
   234    25    24    1
   235    25    26    2
   236    23    24    1
