@<TRIPOS>MOLECULE
tmp/2vcfA00.pdb
 85 81 0 0 0
SMALL
GASTEIGER

@<TRIPOS>ATOM
      1  N         19.9690   58.0720   22.2890 N.3    38  ARG38      -0.1245
      2  CA        19.5790   58.2690   20.8780 C.3    38  ARG38       0.1563
      3  C         20.7430   58.8220   20.0380 C.2    38  ARG38       0.2260
      4  O         20.9700   58.3780   18.9050 O.2    38  ARG38      -0.2867
      5  CB        18.3730   59.2150   20.8010 C.3    38  ARG38       0.0307
      6  CG        17.6820   59.2330   19.4330 C.3    38  ARG38       0.0489
      7  CD        16.4850   60.1940   19.4450 C.3    38  ARG38       0.2205
      8  NE        16.2200   60.6230   18.0630 N.pl3  38  ARG38      -0.0865
      9  CZ        16.0730   61.8860   17.6590 C.cat  38  ARG38       0.5346
     10  NH1       16.1010   62.9010   18.5300 N.pl3  38  ARG38       0.1354
     11  NH2       15.8810   62.1290   16.3580 N.pl3  38  ARG38       0.1354
     12  N         22.0050   56.7590   16.8820 N.3    42  HIS42      -0.1241
     13  CA        22.0190   57.3450   15.5300 C.3    42  HIS42       0.1621
     14  C         23.4240   57.5430   14.9340 C.2    42  HIS42       0.2264
     15  O         23.5910   57.4900   13.7090 O.2    42  HIS42      -0.2867
     16  CB        21.1730   58.6080   15.4830 C.3    42  HIS42       0.0745
     17  CG        19.6990   58.3330   15.4610 C.ar   42  HIS42       0.0817
     18  ND1       18.7820   59.2210   14.9420 N.ar   42  HIS42      -0.2268
     19  CD2       18.9920   57.2410   15.8380 C.ar   42  HIS42       0.1154
     20  CE1       17.5700   58.7050   15.0380 C.ar   42  HIS42       0.1986
     21  NE2       17.6690   57.5020   15.5760 N.ar   42  HIS42      -0.2212
     22  N         16.6060   64.0240    8.5040 N.3    69  SER69      -0.1202
     23  CA        15.3000   64.0540    9.1610 C.3    69  SER69       0.2020
     24  C         15.2250   63.1440   10.3930 C.2    69  SER69       0.2618
     25  O         14.6180   63.5160   11.4030 O.2    69  SER69      -0.2717
     26  CB        14.1750   63.7360    8.1630 C.3    69  SER69       0.2103
     27  OG        14.3350   62.4460    7.5990 O.3    69  SER69      -0.2182
     28  N         15.8610   61.9720   10.3140 N.am   70  ALA70      -0.1979
     29  CA        15.8880   61.0090   11.4290 C.3    70  ALA70       0.1597
     30  C         16.5880   61.5910   12.6630 C.2    70  ALA70       0.2287
     31  O         16.3660   61.1210   13.7760 O.2    70  ALA70      -0.2864
     32  CB        16.5640   59.6940   10.9970 C.3    70  ALA70       0.0319
     33  N         16.3800   64.7810   13.7760 N.3    72  ASN72      -0.1240
     34  CA        15.6300   65.8910   14.3740 C.3    72  ASN72       0.1653
     35  C         15.8630   65.9500   15.8790 C.2    72  ASN72       0.2266
     36  O         15.6080   64.9720   16.5780 O.2    72  ASN72      -0.2867
     37  CB        14.1210   65.7030   14.1450 C.3    72  ASN72       0.1155
     38  CG        13.6390   66.2250   12.7960 C.2    72  ASN72       0.2627
     39  OD1       12.4370   66.1920   12.5180 O.2    72  ASN72      -0.2716
     40  ND2       14.5590   66.6950   11.9540 N.am   72  ASN72      -0.0877
     41  N         18.9140   54.9530    8.7740 N.3   131  LEU131     -0.1231
     42  CA        18.2660   54.6840   10.0520 C.3   131  LEU131      0.1678
     43  C         16.8380   54.1500    9.8450 C.2   131  LEU131      0.2434
     44  O         16.2030   54.4550    8.8110 O.2   131  LEU131     -0.2733
     45  CB        18.3100   55.9540   10.9220 C.3   131  LEU131      0.0284
     46  CG        19.7280   56.4080   11.3160 C.3   131  LEU131      0.0019
     47  CD1       19.6950   57.7630   12.0140 C.3   131  LEU131      0.0001
     48  CD2       20.4280   55.3540   12.1850 C.3   131  LEU131      0.0001
     49  N         16.3380   53.3160   10.7850 N.am  132  PRO132     -0.2718
     50  CA        15.0180   52.6990   10.5790 C.3   132  PRO132      0.1535
     51  C         13.8310   53.6730   10.6360 C.2   132  PRO132      0.2599
     52  O         13.8820   54.7080   11.3230 O.2   132  PRO132     -0.2715
     53  CB        14.9240   51.6400   11.7020 C.3   132  PRO132      0.0310
     54  CG        15.8590   52.1320   12.7700 C.3   132  PRO132      0.0237
     55  CD        16.9710   52.8680   12.0460 C.3   132  PRO132      0.0939
     56  N         12.7910   53.3040    9.8860 N.am  133  ASP133     -0.1958
     57  CA        11.5300   54.0050    9.7410 C.3   133  ASP133      0.1840
     58  C         10.5140   53.4130   10.7110 C.2   133  ASP133      0.2621
     59  O         10.1770   52.2280   10.6280 O.2   133  ASP133     -0.2715
     60  CB        11.0400   53.8340    8.2840 C.3   133  ASP133      0.1450
     61  CG         9.7600   54.6030    7.9740 C.2   133  ASP133      0.3671
     62  OD1        8.9630   54.9270    8.8840 O.co2 133  ASP133     -0.2456
     63  OD2        9.5360   54.8670    6.7650 O.co2 133  ASP133     -0.2456
     64  N         10.0210   54.2570   11.6180 N.am  134  ALA134     -0.1977
     65  CA         9.0870   53.8500   12.6870 C.3   134  ALA134      0.1597
     66  C          7.7330   53.2920   12.2030 C.2   134  ALA134      0.2287
     67  O          7.0140   52.6270   12.9580 O.2   134  ALA134     -0.2864
     68  CB         8.8610   55.0250   13.6260 C.3   134  ALA134      0.0319
     69  N          9.6770   66.5840   16.8110 N.3   172  ARG172     -0.1231
     70  CA        10.8150   65.8460   16.2710 C.3   172  ARG172      0.1694
     71  C         10.3390   64.8040   15.2630 C.2   172  ARG172      0.2592
     72  O         10.2700   65.1070   14.0650 O.2   172  ARG172     -0.2718
     73  CB        11.6760   65.2580   17.3980 C.3   172  ARG172      0.0321
     74  CG        12.2240   66.3800   18.3320 C.3   172  ARG172      0.0489
     75  CD        13.1300   65.8530   19.4540 C.3   172  ARG172      0.2205
     76  NE        13.3690   66.9240   20.4340 N.pl3 172  ARG172     -0.0865
     77  CZ        13.8420   66.7550   21.6650 C.cat 172  ARG172      0.5346
     78  NH1       14.1730   65.5400   22.1130 N.pl3 172  ARG172      0.1354
     79  NH2       14.0030   67.8270   22.4520 N.pl3 172  ARG172      0.1354
     80  N          9.9920   63.5990   15.7190 N.am  173  SER173     -0.1952
     81  CA         9.5000   62.5810   14.7780 C.3   173  SER173      0.1924
     82  C          8.0450   62.8290   14.3510 C.2   173  SER173      0.2314
     83  O          7.6600   62.5180   13.2240 O.2   173  SER173     -0.2863
     84  CB         9.6510   61.1770   15.3560 C.3   173  SER173      0.2116
     85  OG         8.7730   60.9810   16.4450 O.3   173  SER173     -0.2180
@<TRIPOS>BOND
     1    63    61   ar
     2    27    26    1
     3    61    60    1
     4    61    62   ar
     5    26    23    1
     6    60    57    1
     7    22    23    1
     8    41    42    1
     9    44    43    2
    10    23    24    1
    11    57    56    1
    12    57    58    1
    13    43    42    1
    14    43    49   am
    15    56    51   am
    16    42    45    1
    17    28    24   am
    18    28    29    1
    19    24    25    2
    20    50    51    1
    21    50    49    1
    22    50    53    1
    23    59    58    2
    24    51    52    2
    25    58    64   am
    26    49    55    1
    27    45    46    1
    28    32    29    1
    29    46    47    1
    30    46    48    1
    31    29    30    1
    32    64    65    1
    33    53    54    1
    34    40    38   am
    35    55    54    1
    36    66    65    1
    37    66    67    2
    38    39    38    2
    39    30    31    2
    40    65    68    1
    41    38    37    1
    42    83    82    2
    43    15    14    2
    44    33    34    1
    45    72    71    2
    46    37    34    1
    47    82    81    1
    48    34    35    1
    49    81    84    1
    50    81    80    1
    51    14    13    1
    52    18    20   ar
    53    18    17   ar
    54    20    21   ar
    55    71    80   am
    56    71    70    1
    57    84    85    1
    58    17    16    1
    59    17    19   ar
    60    16    13    1
    61    13    12    1
    62    21    19   ar
    63    35    36    2
    64    70    69    1
    65    70    73    1
    66    11     9    1
    67    73    74    1
    68     9     8    2
    69     9    10    1
    70     8     7    1
    71    74    75    1
    72     4     3    2
    73     6     7    1
    74     6     5    1
    75    75    76    1
    76     3     2    1
    77    76    77    2
    78     5     2    1
    79     2     1    1
    80    77    78    1
    81    77    79    1
