@<TRIPOS>MOLECULE
tmp/2vcgD00.pdb
 145 139 0 0 0
SMALL
GASTEIGER

@<TRIPOS>ATOM
      1  N         19.6650  -14.0220   38.3250 N.3    27  LEU27      -0.1231
      2  CA        20.1570  -12.7740   38.8880 C.3    27  LEU27       0.1693
      3  C         21.6600  -12.9260   39.0590 C.2    27  LEU27       0.2591
      4  O         22.4340  -12.2060   38.4380 O.2    27  LEU27      -0.2718
      5  CB        19.4660  -12.5150   40.2270 C.3    27  LEU27       0.0284
      6  CG        19.5970  -11.1410   40.8830 C.3    27  LEU27       0.0019
      7  CD1       19.4660   -9.9960   39.8710 C.3    27  LEU27       0.0001
      8  CD2       18.5490  -11.0360   41.9750 C.3    27  LEU27       0.0001
      9  N         22.0640  -13.8710   39.9070 N.am   28  ALA28      -0.1980
     10  CA        23.4080  -14.4440   39.8420 C.3    28  ALA28       0.1597
     11  C         23.3530  -15.5910   38.8260 C.2    28  ALA28       0.2287
     12  O         22.3110  -15.8220   38.2000 O.2    28  ALA28      -0.2864
     13  CB        23.8540  -14.9450   41.1980 C.3    28  ALA28       0.0319
     14  N         19.6970  -23.8610   41.6540 N.3    36  MET36      -0.1245
     15  CA        19.1560  -22.7490   40.9060 C.3    36  MET36       0.1570
     16  C         19.0800  -23.1690   39.4520 C.2    36  MET36       0.2261
     17  O         20.0960  -23.1870   38.7200 O.2    36  MET36      -0.2867
     18  CB        20.0410  -21.5310   41.0880 C.3    36  MET36       0.0387
     19  CG        20.2220  -21.2160   42.5610 C.3    36  MET36       0.0595
     20  SD        21.4690  -19.9950   42.9350 S.3    36  MET36      -0.1393
     21  CE        20.7290  -18.5450   42.1860 C.3    36  MET36       0.0692
     22  N         28.7280  -11.1260   39.2470 N.3   106  ILE106     -0.1245
     23  CA        27.4350  -11.1620   38.5290 C.3   106  ILE106      0.1561
     24  C         27.4560  -10.4000   37.2000 C.2   106  ILE106      0.2260
     25  O         26.7600  -10.7820   36.2480 O.2   106  ILE106     -0.2867
     26  CB        26.2140  -10.6650   39.3740 C.3   106  ILE106      0.0252
     27  CG1       26.4150   -9.2190   39.8340 C.3   106  ILE106      0.0019
     28  CG2       25.9330  -11.5970   40.5580 C.3   106  ILE106      0.0019
     29  CD1       25.1470   -8.4030   39.8490 C.3   106  ILE106      0.0001
     30  N         23.3930   -0.7000   31.4830 N.3   146  PRO146     -0.2116
     31  CA        23.1420    0.4660   32.3240 C.3   146  PRO146      0.1372
     32  C         24.4500    0.9550   32.9290 C.2   146  PRO146      0.2244
     33  O         25.5100    0.3660   32.6570 O.2   146  PRO146     -0.2868
     34  CB        22.1870   -0.0770   33.3920 C.3   146  PRO146      0.0268
     35  CG        22.5640   -1.5070   33.5130 C.3   146  PRO146      0.0207
     36  CD        22.8850   -1.9370   32.1080 C.3   146  PRO146      0.0892
     37  N         24.6280    3.2320   36.3500 N.3   148  HIS148     -0.1226
     38  CA        24.6920    4.0300   37.5880 C.3   148  HIS148      0.1752
     39  C         25.3980    3.3590   38.7650 C.2   148  HIS148      0.2596
     40  O         25.8020    4.0320   39.7040 O.2   148  HIS148     -0.2718
     41  CB        23.3200    4.6000   37.9840 C.3   148  HIS148      0.0759
     42  CG        22.3670    3.5860   38.5340 C.ar  148  HIS148      0.0818
     43  ND1       21.3620    3.9180   39.4160 N.ar  148  HIS148     -0.2268
     44  CD2       22.2650    2.2510   38.3260 C.ar  148  HIS148      0.1154
     45  CE1       20.6840    2.8280   39.7320 C.ar  148  HIS148      0.1986
     46  NE2       21.2090    1.8040   39.0830 N.ar  148  HIS148     -0.2212
     47  N         25.5550    2.0400   38.7110 N.am  149  HIS149     -0.1975
     48  CA        26.3120    1.3370   39.7540 C.3   149  HIS149      0.1656
     49  C         27.8240    1.3440   39.5790 C.2   149  HIS149      0.2291
     50  O         28.5520    1.0610   40.5430 O.2   149  HIS149     -0.2864
     51  CB        25.8450   -0.1060   39.8830 C.3   149  HIS149      0.0771
     52  CG        24.4610   -0.2380   40.4260 C.ar  149  HIS149      0.0820
     53  ND1       24.0420    0.4340   41.5510 N.ar  149  HIS149     -0.2267
     54  CD2       23.4040   -0.9730   40.0090 C.ar  149  HIS149      0.1154
     55  CE1       22.7810    0.1250   41.8000 C.ar  149  HIS149      0.1986
     56  NE2       22.3710   -0.7250   40.8780 N.ar  149  HIS149     -0.2212
     57  N         26.8520   -4.2930   39.3900 N.3   157  GLY157     -0.1210
     58  CA        25.4050   -4.3740   39.2000 C.3   157  GLY157      0.1956
     59  C         24.9630   -4.1940   37.7600 C.2   157  GLY157      0.2612
     60  O         24.1010   -3.3620   37.4720 O.2   157  GLY157     -0.2717
     61  N         25.5820   -4.9720   36.8740 N.am  158  PHE158     -0.1962
     62  CA        25.2960   -5.0050   35.4210 C.3   158  PHE158      0.1771
     63  C         25.8140   -3.7960   34.6540 C.2   158  PHE158      0.2619
     64  O         25.6450   -3.7300   33.4350 O.2   158  PHE158     -0.2715
     65  CB        23.7980   -5.1490   35.0960 C.3   158  PHE158      0.0574
     66  CG        23.0780   -6.1830   35.9070 C.ar  158  PHE158     -0.0200
     67  CD1       23.6810   -7.4020   36.2200 C.ar  158  PHE158     -0.0042
     68  CD2       21.7670   -5.9450   36.3160 C.ar  158  PHE158     -0.0042
     69  CE1       22.9910   -8.3640   36.9680 C.ar  158  PHE158     -0.0003
     70  CE2       21.0630   -6.9000   37.0580 C.ar  158  PHE158     -0.0003
     71  CZ        21.6840   -8.1070   37.3890 C.ar  158  PHE158     -0.0000
     72  N         26.4240   -2.8510   35.3660 N.am  159  CYS159     -0.1968
     73  CA        26.9540   -1.6260   34.7740 C.3   159  CYS159      0.1712
     74  C         28.4410   -1.7550   34.5550 C.2   159  CYS159      0.2296
     75  O         29.1990   -2.0050   35.5000 O.2   159  CYS159     -0.2864
     76  CB        26.6700   -0.4260   35.6850 C.3   159  CYS159      0.0983
     77  SG        24.9540   -0.3070   36.1430 S.3   159  CYS159     -0.0798
     78  N         16.1590    5.5910   38.6860 N.3   186  ASP186     -0.1239
     79  CA        16.1950    4.1310   38.7850 C.3   186  ASP186      0.1674
     80  C         16.0030    3.8420   40.2860 C.2   186  ASP186      0.2266
     81  O         16.4880    4.6050   41.1390 O.2   186  ASP186     -0.2867
     82  CB        17.5340    3.6340   38.2470 C.3   186  ASP186      0.1410
     83  CG        17.7260    2.1410   38.4000 C.2   186  ASP186      0.3668
     84  OD1       17.7470    1.6320   39.5420 O.co2 186  ASP186     -0.2456
     85  OD2       17.8870    1.4830   37.3640 O.co2 186  ASP186     -0.2456
     86  N         17.1120    1.8300   42.3690 N.3   188  HIS188     -0.1241
     87  CA        18.2960    1.4260   43.1190 C.3   188  HIS188      0.1621
     88  C         19.2450    2.6010   43.2680 C.2   188  HIS188      0.2264
     89  O         19.2470    3.5120   42.4360 O.2   188  HIS188     -0.2867
     90  CB        18.9740    0.2560   42.4000 C.3   188  HIS188      0.0745
     91  CG        18.0510   -0.8980   42.1770 C.ar  188  HIS188      0.0817
     92  ND1       17.5560   -1.2390   40.9340 N.ar  188  HIS188     -0.2268
     93  CD2       17.4490   -1.7260   43.0610 C.ar  188  HIS188      0.1154
     94  CE1       16.7370   -2.2700   41.0580 C.ar  188  HIS188      0.1986
     95  NE2       16.6510   -2.5790   42.3420 N.ar  188  HIS188     -0.2212
     96  N         19.2720   -1.8720   46.5190 N.3   214  PHE214     -0.1241
     97  CA        20.5590   -2.2390   45.9370 C.3   214  PHE214      0.1605
     98  C         21.3600   -0.9820   45.5830 C.2   214  PHE214      0.2264
     99  O         20.8180   -0.0490   44.9940 O.2   214  PHE214     -0.2867
    100  CB        20.4200   -3.1430   44.6850 C.3   214  PHE214      0.0534
    101  CG        21.7380   -3.6850   44.2130 C.ar  214  PHE214     -0.0203
    102  CD1       22.4990   -2.9910   43.2750 C.ar  214  PHE214     -0.0042
    103  CD2       22.2670   -4.8540   44.7810 C.ar  214  PHE214     -0.0042
    104  CE1       23.7580   -3.4610   42.8810 C.ar  214  PHE214     -0.0003
    105  CE2       23.5080   -5.3360   44.3850 C.ar  214  PHE214     -0.0003
    106  CZ        24.2590   -4.6370   43.4420 C.ar  214  PHE214     -0.0000
    107  N         23.5490   -3.1020   48.8210 N.3   216  PRO216     -0.2116
    108  CA        23.3180   -3.1200   50.2560 C.3   216  PRO216      0.1372
    109  C         24.0810   -1.9780   50.9500 C.2   216  PRO216      0.2244
    110  O         25.1230   -1.5470   50.4540 O.2   216  PRO216     -0.2868
    111  CB        23.8620   -4.4950   50.6980 C.3   216  PRO216      0.0268
    112  CG        24.7370   -4.9680   49.6040 C.3   216  PRO216      0.0207
    113  CD        24.2210   -4.3250   48.3390 C.3   216  PRO216      0.0892
    114  N         12.5630    0.6440   37.1250 N.3   274  ASP274     -0.1239
    115  CA        12.4310   -0.4030   38.1360 C.3   274  ASP274      0.1674
    116  C         11.6550    0.0050   39.3950 C.2   274  ASP274      0.2266
    117  O         11.4420   -0.8110   40.2730 O.2   274  ASP274     -0.2867
    118  CB        13.7640   -1.0980   38.4760 C.3   274  ASP274      0.1410
    119  CG        14.9570   -0.1860   38.3890 C.2   274  ASP274      0.3668
    120  OD1       14.7850    1.0520   38.3210 O.co2 274  ASP274     -0.2456
    121  OD2       16.0870   -0.7240   38.3950 O.co2 274  ASP274     -0.2456
    122  N         12.3550   -6.2150   40.7960 N.3   281  LEU281     -0.1245
    123  CA        13.6190   -5.8830   41.4710 C.3   281  LEU281      0.1561
    124  C         13.5230   -4.7100   42.4670 C.2   281  LEU281      0.2260
    125  O         14.5330   -4.2250   42.9660 O.2   281  LEU281     -0.2867
    126  CB        14.7870   -5.7180   40.4650 C.3   281  LEU281      0.0270
    127  CG        15.5110   -7.0190   40.0480 C.3   281  LEU281      0.0019
    128  CD1       16.6820   -6.7150   39.1470 C.3   281  LEU281      0.0001
    129  CD2       16.0020   -7.8910   41.2460 C.3   281  LEU281      0.0001
    130  N         17.8580    1.0130   34.8340 N.3   316  GLY316     -0.1225
    131  CA        17.2500   -0.2970   35.0370 C.3   316  GLY316      0.1811
    132  C         15.7650   -0.3750   34.7270 C.2   316  GLY316      0.2280
    133  O         15.1880    0.5010   34.0710 O.2   316  GLY316     -0.2866
    134  N         12.7340   -3.8950   34.8740 N.3   318  TYR318     -0.1241
    135  CA        12.7170   -5.3330   34.6830 C.3   318  TYR318      0.1605
    136  C         11.3450   -5.8970   34.3580 C.2   318  TYR318      0.2264
    137  O         11.1770   -7.1130   34.3170 O.2   318  TYR318     -0.2867
    138  CB        13.3680   -6.0180   35.9080 C.3   318  TYR318      0.0534
    139  CG        14.7420   -5.4480   36.0550 C.ar  318  TYR318     -0.0201
    140  CD1       14.9940   -4.3850   36.9290 C.ar  318  TYR318     -0.0009
    141  CD2       15.7700   -5.8700   35.2080 C.ar  318  TYR318     -0.0009
    142  CE1       16.2530   -3.8180   36.9900 C.ar  318  TYR318      0.0417
    143  CE2       17.0250   -5.3070   35.2690 C.ar  318  TYR318      0.0417
    144  CZ        17.2550   -4.2830   36.1570 C.ar  318  TYR318      0.1957
    145  OH        18.4890   -3.7320   36.1990 O.3   318  TYR318     -0.2866
@<TRIPOS>BOND
     1    30    36    1
     2    30    31    1
     3    36    35    1
     4    31    32    1
     5    31    34    1
     6    33    32    2
     7    34    35    1
     8    64    63    2
     9   133   132    2
    10   137   136    2
    11   136   135    1
    12    74    73    1
    13    74    75    2
    14    63    72   am
    15    63    62    1
    16   135   134    1
    17   135   138    1
    18   132   131    1
    19    73    72    1
    20    73    76    1
    21   130   131    1
    22    65    62    1
    23    65    66    1
    24   141   143   ar
    25   141   139   ar
    26   143   144   ar
    27    62    61    1
    28    76    77    1
    29    66    67   ar
    30    66    68   ar
    31   138   139    1
    32   139   140   ar
    33   144   145    1
    34   144   142   ar
    35    67    69   ar
    36    25    24    2
    37    68    70   ar
    38    37    38    1
    39    61    59   am
    40   140   142   ar
    41    69    71   ar
    42    70    71   ar
    43   114   115    1
    44    24    23    1
    45    85    83   ar
    46    60    59    2
    47    38    41    1
    48    38    39    1
    49    59    58    1
    50    41    42    1
    51   115   118    1
    52   115   116    1
    53    12    11    2
    54    82    83    1
    55    82    79    1
    56   120   119   ar
    57     1     2    1
    58    44    42   ar
    59    44    46   ar
    60   119   121   ar
    61   119   118    1
    62    83    84   ar
    63     4     3    2
    64    23    22    1
    65    23    26    1
    66    42    43   ar
    67    78    79    1
    68    47    39   am
    69    47    48    1
    70    17    16    2
    71    39    40    2
    72    79    80    1
    73    11    10    1
    74     2     3    1
    75     2     5    1
    76     3     9   am
    77    46    45   ar
    78   128   127    1
    79    58    57    1
    80    26    27    1
    81    26    28    1
    82   116   117    2
    83    43    45   ar
    84    16    15    1
    85    49    48    1
    86    49    50    2
    87    48    51    1
    88    27    29    1
    89    10     9    1
    90    10    13    1
    91     7     6    1
    92    51    52    1
    93    54    52   ar
    94    54    56   ar
    95   127   126    1
    96   127   129    1
    97     5     6    1
    98    80    81    2
    99    52    53   ar
   100   126   123    1
   101   122   123    1
   102    56    55   ar
   103     6     8    1
   104    15    18    1
   105    15    14    1
   106    92    94   ar
   107    92    91   ar
   108    94    95   ar
   109    18    19    1
   110   123   124    1
   111    53    55   ar
   112    91    90    1
   113    91    93   ar
   114    21    20    1
   115    95    93   ar
   116    86    87    1
   117    90    87    1
   118    89    88    2
   119   124   125    2
   120    19    20    1
   121   104   102   ar
   122   104   106   ar
   123    87    88    1
   124   102   101   ar
   125   106   105   ar
   126   101   100    1
   127   101   103   ar
   128   105   103   ar
   129   100    97    1
   130    99    98    2
   131    98    97    1
   132    97    96    1
   133   113   107    1
   134   113   112    1
   135   107   108    1
   136   112   111    1
   137   108   111    1
   138   108   109    1
   139   110   109    2
