@<TRIPOS>MOLECULE
tmp/2vcjA00.pdb
 169 155 0 0 0
SMALL
GASTEIGER

@<TRIPOS>ATOM
      1  N         31.5410   11.5490   16.1690 N.3    33  LEU33      -0.1245
      2  CA        30.9270   12.0550   17.4090 C.3    33  LEU33       0.1561
      3  C         29.5800   11.3860   17.7980 C.2    33  LEU33       0.2260
      4  O         29.3850   10.9660   18.9590 O.2    33  LEU33      -0.2867
      5  CB        30.7790   13.5650   17.3070 C.3    33  LEU33       0.0270
      6  CG        32.1470   14.2250   17.2600 C.3    33  LEU33       0.0019
      7  CD1       32.0020   15.6380   16.8300 C.3    33  LEU33       0.0001
      8  CD2       32.7810   14.1290   18.6440 C.3    33  LEU33       0.0001
      9  N         30.2700    8.1950   19.0160 N.3    36  ASN36      -0.1225
     10  CA        30.6600    8.2290   20.4210 C.3    36  ASN36       0.1785
     11  C         29.4500    8.3160   21.3560 C.2    36  ASN36       0.2597
     12  O         29.3410    7.5360   22.3090 O.2    36  ASN36      -0.2718
     13  CB        31.6220    9.3740   20.6950 C.3    36  ASN36       0.1169
     14  CG        33.0130    9.0680   20.2440 C.2    36  ASN36       0.2627
     15  OD1       33.2530    8.0130   19.6450 O.2    36  ASN36      -0.2716
     16  ND2       33.9540    9.9810   20.5190 N.am   36  ASN36      -0.0877
     17  N         28.5470    9.2630   21.1020 N.am   37  SER37      -0.1952
     18  CA        27.2240    9.2590   21.7630 C.3    37  SER37       0.1924
     19  C         26.6680    7.8310   21.8640 C.2    37  SER37       0.2314
     20  O         26.4710    7.3370   22.9620 O.2    37  SER37      -0.2863
     21  CB        26.1940   10.1630   21.0350 C.3    37  SER37       0.2116
     22  OG        26.3950   11.5650   21.2210 O.3    37  SER37      -0.2180
     23  N         27.9580    4.8180   21.6860 N.3    39  ASP39      -0.1225
     24  CA        28.7040    4.0410   22.6980 C.3    39  ASP39       0.1805
     25  C         28.3440    4.5030   24.1190 C.2    39  ASP39       0.2597
     26  O         28.0050    3.6660   24.9750 O.2    39  ASP39      -0.2718
     27  CB        30.2140    4.1520   22.5120 C.3    39  ASP39       0.1424
     28  CG        30.6630    3.6780   21.1750 C.2    39  ASP39       0.3668
     29  OD1       29.8280    3.1400   20.4080 O.co2  39  ASP39      -0.2456
     30  OD2       31.8670    3.8340   20.8930 O.co2  39  ASP39      -0.2456
     31  N         28.3920    5.8210   24.3640 N.am   40  ALA40      -0.1979
     32  CA        27.9620    6.3360   25.6710 C.3    40  ALA40       0.1597
     33  C         26.5210    5.8800   26.0640 C.2    40  ALA40       0.2287
     34  O         26.2830    5.4980   27.2010 O.2    40  ALA40      -0.2864
     35  CB        28.1550    7.8750   25.7750 C.3    40  ALA40       0.0319
     36  N         26.2460    2.0320   27.1460 N.3    43  LYS43      -0.1245
     37  CA        26.7740    1.7190   28.4780 C.3    43  LYS43       0.1561
     38  C         25.7680    1.9550   29.5990 C.2    43  LYS43       0.2260
     39  O         25.6040    1.1220   30.4920 O.2    43  LYS43      -0.2867
     40  CB        28.0540    2.5120   28.7330 C.3    43  LYS43       0.0271
     41  CG        29.1540    2.2300   27.7060 C.3    43  LYS43       0.0035
     42  CD        30.4890    2.8510   28.0880 C.3    43  LYS43       0.0206
     43  CE        31.5530    2.4650   27.0750 C.3    43  LYS43       0.1093
     44  NZ        32.9490    2.6300   27.5770 N.3    43  LYS43      -0.1314
     45  N         26.0290   18.6710   19.6430 N.3    76  ILE76      -0.1245
     46  CA        25.5450   17.2790   19.6940 C.3    76  ILE76       0.1561
     47  C         25.3130   16.9750   21.1570 C.2    76  ILE76       0.2260
     48  O         26.2260   17.0740   21.9650 O.2    76  ILE76      -0.2867
     49  CB        26.5770   16.2600   19.0490 C.3    76  ILE76       0.0252
     50  CG1       26.8650   16.6000   17.5880 C.3    76  ILE76       0.0019
     51  CG2       26.0470   14.8940   19.0560 C.3    76  ILE76       0.0019
     52  CD1       28.0360   17.5590   17.3570 C.3    76  ILE76       0.0001
     53  N         23.6950   14.1780   23.8710 N.3    78  ASP78      -0.1239
     54  CA        23.1580   12.8770   24.1820 C.3    78  ASP78       0.1674
     55  C         22.9640   12.6880   25.6870 C.2    78  ASP78       0.2266
     56  O         23.5450   13.3870   26.5460 O.2    78  ASP78      -0.2867
     57  CB        24.0780   11.7890   23.6520 C.3    78  ASP78       0.1410
     58  CG        25.2640   11.5950   24.5220 C.2    78  ASP78       0.3668
     59  OD1       25.0730   11.4050   25.7350 O.co2  78  ASP78      -0.2456
     60  OD2       26.3880   11.6250   24.0000 O.co2  78  ASP78      -0.2456
     61  N         26.0000    7.6270   29.2710 N.3    81  ILE81      -0.1231
     62  CA        26.6450    7.4210   30.6200 C.3    81  ILE81       0.1692
     63  C         27.4550    8.6260   31.2150 C.2    81  ILE81       0.2593
     64  O         27.6570    8.7290   32.4360 O.2    81  ILE81      -0.2718
     65  CB        27.6140    6.1520   30.6250 C.3    81  ILE81       0.0266
     66  CG1       27.7820    5.5160   32.0190 C.3    81  ILE81       0.0019
     67  CG2       28.9800    6.5100   30.1200 C.3    81  ILE81       0.0020
     68  CD1       27.1200    4.1530   32.1940 C.3    81  ILE81       0.0001
     69  N         27.9670    9.4930   30.3560 N.am   82  GLY82      -0.1942
     70  CA        28.7590   10.6270   30.8190 C.3    82  GLY82       0.2014
     71  C         30.1780   10.2530   31.1990 C.2    82  GLY82       0.2638
     72  O         30.5310    9.0590   31.2680 O.2    82  GLY82      -0.2714
     73  N         31.0040   11.2590   31.4590 N.am   83  MET83      -0.1976
     74  CA        32.3230   10.9460   31.9850 C.3    83  MET83       0.1605
     75  C         32.6310   11.5670   33.3760 C.2    83  MET83       0.2287
     76  O         31.9840   12.5490   33.8120 O.2    83  MET83      -0.2864
     77  CB        33.3900   11.3080   30.9510 C.3    83  MET83       0.0413
     78  CG        33.2870   10.5280   29.6530 C.3    83  MET83       0.0598
     79  SD        34.1090   11.2730   28.2500 S.3    83  MET83      -0.1393
     80  CE        33.3550   12.9140   28.0630 C.3    83  MET83       0.0692
     81  N         38.0450   10.8100   33.6520 N.3    87  ASP87      -0.1239
     82  CA        37.8800   10.3160   32.2830 C.3    87  ASP87       0.1674
     83  C         38.2320   11.4030   31.2750 C.2    87  ASP87       0.2266
     84  O         38.9520   11.1490   30.3190 O.2    87  ASP87      -0.2867
     85  CB        36.4460    9.7780   32.0560 C.3    87  ASP87       0.1410
     86  CG        36.1650    8.4690   32.8390 C.2    87  ASP87       0.3668
     87  OD1       37.1340    7.6890   33.0830 O.co2  87  ASP87      -0.2456
     88  OD2       34.9760    8.2130   33.2000 O.co2  87  ASP87      -0.2456
     89  N         39.4380   11.7890   27.2980 N.3    92  LEU92      -0.1231
     90  CA        38.0090   11.6290   27.0610 C.3    92  LEU92       0.1693
     91  C         37.6360   10.1390   27.1000 C.2    92  LEU92       0.2593
     92  O         36.8110    9.6910   26.3090 O.2    92  LEU92      -0.2718
     93  CB        37.5520   12.3310   25.7590 C.3    92  LEU92       0.0284
     94  CG        37.5550   13.8610   25.8970 C.3    92  LEU92       0.0019
     95  CD1       38.8770   14.4160   25.4650 C.3    92  LEU92       0.0001
     96  CD2       36.4660   14.5450   25.1060 C.3    92  LEU92       0.0001
     97  N         38.2450    9.3860   28.0290 N.am   93  GLY93      -0.1942
     98  CA        38.0420    7.9340   28.1550 C.3    93  GLY93       0.2014
     99  C         38.5130    7.0960   26.9580 C.2    93  GLY93       0.2640
    100  O         37.9260    6.0420   26.6490 O.2    93  GLY93      -0.2714
    101  N         39.5430    7.5690   26.2550 N.am   94  THR94      -0.1936
    102  CA        40.0800    6.8440   25.1130 C.3    94  THR94       0.2028
    103  C         41.4360    6.2810   25.5750 C.2    94  THR94       0.2642
    104  O         41.8800    6.5530   26.6980 O.2    94  THR94      -0.2714
    105  CB        40.2460    7.7350   23.7980 C.3    94  THR94       0.1808
    106  OG1       41.1950    8.7790   24.0350 O.3    94  THR94      -0.2208
    107  CG2       38.9280    8.3670   23.3020 C.3    94  THR94       0.0379
    108  N         42.0570    5.4530   24.7270 N.am   95  ILE95      -0.1977
    109  CA        43.4510    5.0120   24.8970 C.3    95  ILE95       0.1596
    110  C         44.3140    5.6950   23.8180 C.2    95  ILE95       0.2287
    111  O         45.2090    5.1130   23.1920 O.2    95  ILE95      -0.2864
    112  CB        43.5870    3.4650   24.9760 C.3    95  ILE95       0.0276
    113  CG1       43.1100    2.7700   23.6850 C.3    95  ILE95       0.0022
    114  CG2       42.8410    2.9530   26.2130 C.3    95  ILE95       0.0022
    115  CD1       43.7190    1.3790   23.5380 C.3    95  ILE95       0.0001
    116  N         38.2360    6.6800   13.5350 N.3   117  GLY117     -0.1225
    117  CA        37.4250    5.9500   14.5170 C.3   117  GLY117      0.1811
    118  C         37.8490    4.5180   14.8490 C.2   117  GLY117      0.2280
    119  O         37.6330    4.0590   15.9870 O.2   117  GLY117     -0.2866
    120  N         39.9820    4.4710   17.7320 N.3   120  GLY120     -0.1225
    121  CA        39.3200    4.9140   18.9620 C.3   120  GLY120      0.1811
    122  C         39.7410    6.3100   19.3760 C.2   120  GLY120      0.2280
    123  O         39.6920    6.6520   20.5620 O.2   120  GLY120     -0.2866
    124  N         38.4870    8.8900   17.3410 N.3   122  GLY122     -0.1210
    125  CA        37.5680    9.5350   16.4290 C.3   122  GLY122      0.1956
    126  C         37.1470   10.9230   16.8560 C.2   122  GLY122      0.2611
    127  O         36.8050   11.7610   16.0110 O.2   122  GLY122     -0.2717
    128  N         37.1570   11.1750   18.1640 N.am  123  PHE123     -0.1976
    129  CA        36.8290   12.5130   18.7080 C.3   123  PHE123      0.1639
    130  C         37.5410   13.6500   18.0350 C.2   123  PHE123      0.2290
    131  O         36.8790   14.6040   17.6600 O.2   123  PHE123     -0.2864
    132  CB        37.1230   12.5890   20.2060 C.3   123  PHE123      0.0560
    133  CG        37.0940   13.9770   20.7700 C.ar  123  PHE123     -0.0200
    134  CD1       35.8950   14.7240   20.7740 C.ar  123  PHE123     -0.0042
    135  CD2       38.2500   14.5200   21.3730 C.ar  123  PHE123     -0.0042
    136  CE1       35.8370   16.0160   21.3460 C.ar  123  PHE123     -0.0003
    137  CE2       38.2210   15.8150   21.9590 C.ar  123  PHE123     -0.0003
    138  CZ        37.0010   16.5680   21.9350 C.ar  123  PHE123     -0.0000
    139  N         33.4710   20.3650   25.6140 N.3   135  VAL135     -0.1245
    140  CA        32.6940   19.1470   25.9200 C.3   135  VAL135      0.1561
    141  C         32.0840   19.2710   27.2990 C.2   135  VAL135      0.2260
    142  O         32.8240   19.2700   28.3000 O.2   135  VAL135     -0.2867
    143  CB        33.5430   17.8710   25.9620 C.3   135  VAL135      0.0252
    144  CG1       32.6680   16.7150   26.3860 C.3   135  VAL135      0.0019
    145  CG2       34.1760   17.6130   24.6250 C.3   135  VAL135      0.0019
    146  N         28.2520   12.5360   34.6720 N.3   139  HIS139     -0.1241
    147  CA        28.1730   11.0790   34.9020 C.3   139  HIS139      0.1621
    148  C         27.3610   11.0000   36.1630 C.2   139  HIS139      0.2264
    149  O         27.1980   12.0240   36.8240 O.2   139  HIS139     -0.2867
    150  CB        29.5900   10.5140   35.1280 C.3   139  HIS139      0.0745
    151  CG        29.6750    9.0150   35.1500 C.ar  139  HIS139      0.0817
    152  ND1       29.2770    8.2560   36.2330 N.ar  139  HIS139     -0.2268
    153  CD2       30.1560    8.1360   34.2330 C.ar  139  HIS139      0.1154
    154  CE1       29.4790    6.9760   35.9720 C.ar  139  HIS139      0.1986
    155  NE2       30.0110    6.8750   34.7650 N.ar  139  HIS139     -0.2212
    156  N         26.3420   13.8230   27.6610 N.3   169  THR169     -0.1218
    157  CA        27.4890   14.5930   27.1790 C.3   169  THR169      0.1862
    158  C         26.9910   15.4810   26.0410 C.2   169  THR169      0.2287
    159  O         26.0450   15.1290   25.3010 O.2   169  THR169     -0.2866
    160  CB        28.6880   13.6750   26.6840 C.3   169  THR169      0.1770
    161  OG1       29.1960   12.8710   27.7590 O.3   169  THR169     -0.2211
    162  CG2       29.8500   14.4850   26.0860 C.3   169  THR169      0.0375
    163  N         28.6980   18.2630   23.1720 N.3   171  VAL171     -0.1245
    164  CA        29.8900   18.7020   22.4830 C.3   171  VAL171      0.1561
    165  C         29.4660   19.8840   21.6530 C.2   171  VAL171      0.2260
    166  O         28.7310   19.7760   20.6600 O.2   171  VAL171     -0.2867
    167  CB        30.4430   17.6090   21.5560 C.3   171  VAL171      0.0252
    168  CG1       31.6800   18.0800   20.9050 C.3   171  VAL171      0.0019
    169  CG2       30.7020   16.3060   22.3220 C.3   171  VAL171      0.0019
@<TRIPOS>BOND
     1   116   117    1
     2   117   118    1
     3   118   119    2
     4   127   126    2
     5     1     2    1
     6   125   126    1
     7   125   124    1
     8     7     6    1
     9   126   128   am
    10     6     5    1
    11     6     8    1
    12     5     2    1
    13    52    50    1
    14     2     3    1
    15    50    49    1
    16   131   130    2
    17   120   121    1
    18     3     4    2
    19   130   129    1
    20   128   129    1
    21   129   132    1
    22   121   122    1
    23     9    10    1
    24    49    51    1
    25    49    46    1
    26   122   123    2
    27    45    46    1
    28    15    14    2
    29    46    47    1
    30   132   133    1
    31    14    16   am
    32    14    13    1
    33    29    28   ar
    34    10    13    1
    35    10    11    1
    36   166   165    2
    37   133   134   ar
    38   133   135   ar
    39   134   136   ar
    40    30    28   ar
    41   168   167    1
    42    21    22    1
    43    21    18    1
    44    17    11   am
    45    17    18    1
    46    47    48    2
    47    28    27    1
    48   136   138   ar
    49    11    12    2
    50   135   137   ar
    51   167   169    1
    52   167   164    1
    53   165   164    1
    54    23    24    1
    55    18    19    1
    56    19    20    2
    57   138   137   ar
    58   164   163    1
    59    27    24    1
    60    24    25    1
    61   111   110    2
    62   107   105    1
    63   115   113    1
    64    57    54    1
    65    57    58    1
    66   113   112    1
    67   105   106    1
    68   105   102    1
    69   110   109    1
    70    53    54    1
    71    60    58   ar
    72    25    31   am
    73    25    26    2
    74    54    55    1
    75    31    32    1
    76    58    59   ar
    77   145   143    1
    78   108   109    1
    79   108   103   am
    80   109   112    1
    81   112   114    1
    82    96    94    1
    83   102   103    1
    84   102   101    1
    85   159   158    2
    86    95    94    1
    87   103   104    2
    88   139   140    1
    89    32    35    1
    90    32    33    1
    91    55    56    2
    92    93    94    1
    93    93    90    1
    94   140   143    1
    95   140   141    1
    96   143   144    1
    97   158   157    1
    98    33    34    2
    99   162   160    1
   100   101    99   am
   101    92    91    2
   102   100    99    2
   103   160   157    1
   104   160   161    1
   105    99    98    1
   106    90    91    1
   107    90    89    1
   108    43    44    1
   109    43    42    1
   110    91    97   am
   111    36    37    1
   112   157   156    1
   113   141   142    2
   114    41    42    1
   115    41    40    1
   116    97    98    1
   117    80    79    1
   118    79    78    1
   119    37    40    1
   120    37    38    1
   121    61    62    1
   122    38    39    2
   123    78    77    1
   124    67    65    1
   125    84    83    2
   126    69    70    1
   127    69    63   am
   128    62    65    1
   129    62    63    1
   130    65    66    1
   131    70    71    1
   132    77    74    1
   133    71    72    2
   134    71    73   am
   135    63    64    2
   136    83    82    1
   137    73    74    1
   138    74    75    1
   139    66    68    1
   140    85    82    1
   141    85    86    1
   142    82    81    1
   143    86    87   ar
   144    86    88   ar
   145    75    76    2
   146   153   155   ar
   147   153   151   ar
   148   146   147    1
   149   155   154   ar
   150   147   150    1
   151   147   148    1
   152   150   151    1
   153   151   152   ar
   154   154   152   ar
   155   148   149    2
