@<TRIPOS>MOLECULE
tmp/2vcnA01.pdb
 82 78 0 0 0
SMALL
GASTEIGER

@<TRIPOS>ATOM
      1  N         19.9550   57.9470   22.3840 N.3    37  ARG37      -0.1245
      2  CA        19.5850   58.1330   21.0020 C.3    37  ARG37       0.1563
      3  C         20.7310   58.7000   20.1420 C.2    37  ARG37       0.2260
      4  O         20.9440   58.2730   19.0070 O.2    37  ARG37      -0.2867
      5  CB        18.3220   59.0080   20.9300 C.3    37  ARG37       0.0307
      6  CG        17.7920   59.2440   19.5420 C.3    37  ARG37       0.0489
      7  CD        16.4890   60.1000   19.5330 C.3    37  ARG37       0.2205
      8  NE        16.1980   60.4990   18.1620 N.pl3  37  ARG37      -0.0865
      9  CZ        16.0840   61.7620   17.7370 C.cat  37  ARG37       0.5346
     10  NH1       16.1200   62.7960   18.5790 N.pl3  37  ARG37       0.1354
     11  NH2       15.9010   61.9820   16.4510 N.pl3  37  ARG37       0.1354
     12  N         23.2300   55.9200   19.4730 N.3    40  ALA40      -0.1231
     13  CA        22.6920   54.9250   18.5600 C.3    40  ALA40       0.1694
     14  C         22.5520   55.4360   17.1250 C.2    40  ALA40       0.2592
     15  O         22.8800   54.7200   16.1770 O.2    40  ALA40      -0.2718
     16  CB        21.3930   54.3710   19.0850 C.3    40  ALA40       0.0304
     17  N         22.1040   56.6940   16.9620 N.am   41  HIS41      -0.1976
     18  CA        22.0520   57.2900   15.6310 C.3    41  HIS41       0.1656
     19  C         23.4390   57.4680   15.0010 C.2    41  HIS41       0.2291
     20  O         23.5900   57.4070   13.7770 O.2    41  HIS41      -0.2864
     21  CB        21.3150   58.6310   15.6880 C.3    41  HIS41       0.0771
     22  CG        19.8200   58.5020   15.7120 C.ar   41  HIS41       0.0820
     23  ND1       19.0060   59.1830   14.8340 N.ar   41  HIS41      -0.2267
     24  CD2       18.9930   57.8060   16.5280 C.ar   41  HIS41       0.1154
     25  CE1       17.7450   58.8790   15.0830 C.ar   41  HIS41       0.1986
     26  NE2       17.7070   58.0490   16.1100 N.ar   41  HIS41      -0.2212
     27  N         24.2830   53.5520   14.0590 N.3    44  GLY44      -0.1225
     28  CA        23.3570   52.7770   13.2340 C.3    44  GLY44       0.1811
     29  C         23.4120   53.0280   11.7490 C.2    44  GLY44       0.2280
     30  O         22.6990   52.3920   10.9760 O.2    44  GLY44      -0.2866
     31  N         18.8140   54.8730    8.6940 N.3   130  LEU130     -0.1231
     32  CA        18.2190   54.5930    9.9980 C.3   130  LEU130      0.1678
     33  C         16.8020   54.0320    9.8410 C.2   130  LEU130      0.2434
     34  O         16.1710   54.2630    8.8090 O.2   130  LEU130     -0.2733
     35  CB        18.2660   55.8430   10.8830 C.3   130  LEU130      0.0284
     36  CG        19.6990   56.3260   11.1590 C.3   130  LEU130      0.0019
     37  CD1       19.6970   57.5040   12.1040 C.3   130  LEU130      0.0001
     38  CD2       20.5910   55.2110   11.7050 C.3   130  LEU130      0.0001
     39  N         16.3210   53.2560   10.8370 N.am  131  PRO131     -0.2729
     40  CA        15.0110   52.6120   10.6940 C.3   131  PRO131      0.1401
     41  C         13.8230   53.5770   10.6800 C.2   131  PRO131      0.2269
     42  O         13.8600   54.6420   11.3130 O.2   131  PRO131     -0.2865
     43  CB        14.9310   51.6710   11.9040 C.3   131  PRO131      0.0296
     44  CG        15.9100   52.1510   12.8600 C.3   131  PRO131      0.0237
     45  CD        16.9670   52.9040   12.1120 C.3   131  PRO131      0.0939
     46  N         19.0680   46.5290   10.5360 N.3   144  PHE144     -0.1241
     47  CA        19.9490   45.9590   11.5430 C.3   144  PHE144      0.1605
     48  C         20.7640   44.7870   11.0340 C.2   144  PHE144      0.2264
     49  O         21.8880   44.6030   11.4550 O.2   144  PHE144     -0.2867
     50  CB        19.1790   45.5340   12.7830 C.3   144  PHE144      0.0534
     51  CG        18.6780   46.6810   13.6110 C.ar  144  PHE144     -0.0203
     52  CD1       17.4250   47.2380   13.3680 C.ar  144  PHE144     -0.0042
     53  CD2       19.4410   47.1710   14.6620 C.ar  144  PHE144     -0.0042
     54  CE1       16.9550   48.2830   14.1400 C.ar  144  PHE144     -0.0003
     55  CE2       18.9670   48.2220   15.4390 C.ar  144  PHE144     -0.0003
     56  CZ        17.7190   48.7720   15.1790 C.ar  144  PHE144     -0.0000
     57  N         23.6970   46.7230    9.0770 N.3   148  MET148     -0.1245
     58  CA        24.5860   46.7730   10.2430 C.3   148  MET148      0.1570
     59  C         25.3230   45.4850   10.5300 C.2   148  MET148      0.2261
     60  O         26.4490   45.5310   11.0190 O.2   148  MET148     -0.2867
     61  CB        23.8690   47.2060   11.5160 C.3   148  MET148      0.0387
     62  CG        23.2650   48.6030   11.4650 C.3   148  MET148      0.0595
     63  SD        22.6080   49.0230   13.0890 S.3   148  MET148     -0.1393
     64  CE        21.0600   49.7860   12.6380 C.3   148  MET148      0.0692
     65  N         14.0800   51.7590   24.1940 N.3   162  HIS162     -0.1241
     66  CA        12.8710   52.5890   24.3520 C.3   162  HIS162      0.1621
     67  C         12.2960   52.5290   25.7570 C.2   162  HIS162      0.2264
     68  O         11.3470   53.2500   26.0780 O.2   162  HIS162     -0.2867
     69  CB        11.8460   52.2140   23.2860 C.3   162  HIS162      0.0745
     70  CG        12.2400   52.6650   21.9250 C.ar  162  HIS162      0.0817
     71  ND1       11.6620   52.1880   20.7730 N.ar  162  HIS162     -0.2268
     72  CD2       13.1910   53.5480   21.5330 C.ar  162  HIS162      0.1154
     73  CE1       12.2340   52.7620   19.7290 C.ar  162  HIS162      0.1986
     74  NE2       13.1700   53.5880   20.1660 N.ar  162  HIS162     -0.2212
     75  N         26.6620   47.3120   18.6660 N.3   241  LEU241     -0.1245
     76  CA        26.2250   48.5310   18.0000 C.3   241  LEU241      0.1561
     77  C         27.2960   49.6300   18.0900 C.2   241  LEU241      0.2260
     78  O         27.6750   50.2140   17.0840 O.2   241  LEU241     -0.2867
     79  CB        24.9080   48.9990   18.6130 C.3   241  LEU241      0.0270
     80  CG        24.3490   50.3170   18.0830 C.3   241  LEU241      0.0019
     81  CD1       24.0460   50.2490   16.5970 C.3   241  LEU241      0.0001
     82  CD2       23.1660   50.7430   18.9030 C.3   241  LEU241      0.0001
@<TRIPOS>BOND
     1    31    32    1
     2    34    33    2
     3    57    58    1
     4    33    32    1
     5    33    39   am
     6    32    35    1
     7    58    59    1
     8    58    61    1
     9    59    60    2
    10    46    47    1
    11    41    40    1
    12    41    42    2
    13    40    39    1
    14    40    43    1
    15    39    45    1
    16    35    36    1
    17    30    29    2
    18    48    49    2
    19    48    47    1
    20    36    38    1
    21    36    37    1
    22    62    61    1
    23    62    63    1
    24    47    50    1
    25    29    28    1
    26    43    44    1
    27    45    44    1
    28    64    63    1
    29    50    51    1
    30    28    27    1
    31    52    51   ar
    32    52    54   ar
    33    51    53   ar
    34    20    19    2
    35    54    56   ar
    36    53    55   ar
    37    23    25   ar
    38    23    22   ar
    39    19    18    1
    40    25    26   ar
    41    56    55   ar
    42    18    21    1
    43    18    17    1
    44    21    22    1
    45    22    24   ar
    46    26    24   ar
    47    15    14    2
    48    11     9    1
    49    81    80    1
    50    17    14   am
    51    78    77    2
    52    14    13    1
    53     9     8    2
    54     9    10    1
    55    76    77    1
    56    76    79    1
    57    76    75    1
    58    80    79    1
    59    80    82    1
    60     8     7    1
    61    13    16    1
    62    13    12    1
    63     4     3    2
    64     7     6    1
    65     6     5    1
    66    73    74   ar
    67    73    71   ar
    68     3     2    1
    69    74    72   ar
    70    71    70   ar
    71     5     2    1
    72     2     1    1
    73    72    70   ar
    74    70    69    1
    75    69    66    1
    76    65    66    1
    77    66    67    1
    78    67    68    2
