@<TRIPOS>MOLECULE
tmp/2vcoA00.pdb
 139 133 0 0 0
SMALL
GASTEIGER

@<TRIPOS>ATOM
      1  N         44.3260   40.9570    9.4550 N.3     1  PHE1       -0.1241
      2  CA        43.3570   39.9120    9.0280 C.3     1  PHE1        0.1605
      3  C         43.5290   38.7560   10.0000 C.2     1  PHE1        0.2264
      4  O         44.6440   38.2980   10.2120 O.2     1  PHE1       -0.2867
      5  CB        43.6560   39.4280    7.5910 C.3     1  PHE1        0.0534
      6  CG        42.8100   38.2410    7.1570 C.ar    1  PHE1       -0.0203
      7  CD1       43.2110   36.9340    7.4340 C.ar    1  PHE1       -0.0042
      8  CD2       41.5970   38.4410    6.5040 C.ar    1  PHE1       -0.0042
      9  CE1       42.4150   35.8380    7.0390 C.ar    1  PHE1       -0.0003
     10  CE2       40.7900   37.3550    6.1300 C.ar    1  PHE1       -0.0003
     11  CZ        41.1990   36.0550    6.4130 C.ar    1  PHE1       -0.0000
     12  N         46.5530   37.2390   13.3770 N.3    13  ILE13      -0.1231
     13  CA        47.2660   37.9340   12.3040 C.3    13  ILE13       0.1692
     14  C         48.5500   37.1690   12.0270 C.2    13  ILE13       0.2592
     15  O         49.2150   36.7430   12.9600 O.2    13  ILE13      -0.2718
     16  CB        47.5870   39.4270   12.7090 C.3    13  ILE13       0.0266
     17  CG1       46.4000   40.3390   12.3900 C.3    13  ILE13       0.0019
     18  CG2       48.8570   39.9350   11.9980 C.3    13  ILE13       0.0020
     19  CD1       46.3780   41.6850   13.1670 C.3    13  ILE13       0.0001
     20  N         48.8390   36.8780   10.7570 N.am   14  GLY14      -0.1957
     21  CA        50.0570   36.1380   10.4240 C.3    14  GLY14       0.1869
     22  C         49.8670   34.6660   10.1120 C.2    14  GLY14       0.2309
     23  O         50.8020   33.9790    9.6650 O.2    14  GLY14      -0.2863
     24  N         38.8230   41.7710    8.1630 N.3    46  ASN46      -0.1225
     25  CA        39.9040   42.6530    7.7720 C.3    46  ASN46       0.1785
     26  C         40.1440   43.6200    8.9500 C.2    46  ASN46       0.2597
     27  O         39.2000   44.1710    9.5280 O.2    46  ASN46      -0.2718
     28  CB        39.4740   43.4310    6.5020 C.3    46  ASN46       0.1169
     29  CG        40.5850   44.3250    5.9190 C.2    46  ASN46       0.2627
     30  OD1       41.3640   44.9260    6.6470 O.2    46  ASN46      -0.2716
     31  ND2       40.6590   44.3940    4.5900 N.am   46  ASN46      -0.0877
     32  N         41.4000   43.7960    9.3190 N.am   47  ASP47      -0.1960
     33  CA        41.7310   44.6580   10.4480 C.3    47  ASP47       0.1840
     34  C         41.8360   46.1480   10.0760 C.2    47  ASP47       0.2622
     35  O         41.5960   47.0170   10.9250 O.2    47  ASP47      -0.2715
     36  CB        42.9980   44.1600   11.1480 C.3    47  ASP47       0.1450
     37  CG        42.7160   43.0160   12.0910 C.2    47  ASP47       0.3671
     38  OD1       41.8530   43.1770   12.9830 O.co2  47  ASP47      -0.2456
     39  OD2       43.3480   41.9590   11.9450 O.co2  47  ASP47      -0.2456
     40  N         42.1410   46.4450    8.8120 N.am   48  TYR48      -0.1974
     41  CA        42.2800   47.8370    8.3770 C.3    48  TYR48       0.1639
     42  C         41.6350   48.0680    7.0240 C.2    48  TYR48       0.2290
     43  O         42.3330   48.3310    6.0470 O.2    48  TYR48      -0.2864
     44  CB        43.7550   48.2700    8.3510 C.3    48  TYR48       0.0560
     45  CG        44.4680   48.1030    9.6800 C.ar   48  TYR48      -0.0198
     46  CD1       45.0040   46.8640   10.0540 C.ar   48  TYR48      -0.0009
     47  CD2       44.6270   49.1830   10.5590 C.ar   48  TYR48      -0.0009
     48  CE1       45.6370   46.6920   11.2810 C.ar   48  TYR48       0.0417
     49  CE2       45.2760   49.0230   11.7970 C.ar   48  TYR48       0.0417
     50  CZ        45.7820   47.7750   12.1430 C.ar   48  TYR48       0.1957
     51  OH        46.4400   47.5880   13.3470 O.3    48  TYR48      -0.2866
     52  N         39.7340   50.3530    5.7290 N.3    50  GLU50      -0.1231
     53  CA        39.7030   51.6880    5.1350 C.3    50  GLU50       0.1699
     54  C         40.9640   51.9530    4.3200 C.2    50  GLU50       0.2593
     55  O         40.9940   52.8610    3.4860 O.2    50  GLU50      -0.2718
     56  CB        39.5070   52.7660    6.2170 C.3    50  GLU50       0.0402
     57  CG        40.4810   52.8210    7.3070 C.3    50  GLU50       0.1161
     58  CD        40.3330   51.8590    8.4540 C.2    50  GLU50       0.3649
     59  OE1       39.6480   50.8370    8.3920 O.co2  50  GLU50      -0.2457
     60  OE2       40.9580   52.2160    9.5240 O.co2  50  GLU50      -0.2457
     61  N         41.9940   51.1440    4.5350 N.am   51  THR51      -0.1939
     62  CA        43.2730   51.3590    3.8760 C.3    51  THR51       0.2028
     63  C         43.8200   50.1200    3.1740 C.2    51  THR51       0.2642
     64  O         44.8260   50.2000    2.4500 O.2    51  THR51      -0.2714
     65  CB        44.3220   51.8190    4.8800 C.3    51  THR51       0.1808
     66  OG1       44.1030   51.1470    6.1290 O.3    51  THR51      -0.2208
     67  CG2       44.2240   53.3250    5.0880 C.3    51  THR51       0.0379
     68  N         43.2200   48.9640    3.4550 N.am   52  ILE52      -0.1977
     69  CA        43.7620   47.6990    2.9630 C.3    52  ILE52       0.1596
     70  C         42.6550   46.7730    2.5280 C.2    52  ILE52       0.2287
     71  O         41.6380   46.6600    3.2030 O.2    52  ILE52      -0.2864
     72  CB        44.6260   46.9790    4.0180 C.3    52  ILE52       0.0276
     73  CG1       45.8210   47.8450    4.4120 C.3    52  ILE52       0.0022
     74  CG2       45.1280   45.6350    3.4760 C.3    52  ILE52       0.0022
     75  CD1       46.7220   47.2080    5.4370 C.3    52  ILE52       0.0001
     76  N         41.9680   42.8260    1.8070 N.3    54  ASP54      -0.1239
     77  CA        42.4480   41.4490    1.9420 C.3    54  ASP54       0.1674
     78  C         41.7880   40.5290    0.9190 C.2    54  ASP54       0.2266
     79  O         40.5870   40.6310    0.6680 O.2    54  ASP54      -0.2867
     80  CB        42.1640   40.9040    3.3500 C.3    54  ASP54       0.1410
     81  CG        42.9420   41.6370    4.4340 C.2    54  ASP54       0.3668
     82  OD1       44.1560   41.8830    4.2670 O.co2  54  ASP54      -0.2456
     83  OD2       42.3340   41.9420    5.4690 O.co2  54  ASP54      -0.2456
     84  N         45.6900   33.9650    2.5850 N.3   133  GLN133     -0.1245
     85  CA        45.3210   35.3580    2.6890 C.3   133  GLN133      0.1566
     86  C         46.4650   36.2650    2.2210 C.2   133  GLN133      0.2260
     87  O         47.6210   36.1110    2.6410 O.2   133  GLN133     -0.2867
     88  CB        44.9000   35.7150    4.1390 C.3   133  GLN133      0.0367
     89  CG        44.5790   37.2220    4.3660 C.3   133  GLN133      0.0905
     90  CD        45.6850   37.9690    5.1240 C.2   133  GLN133      0.2608
     91  OE1       46.2850   37.4320    6.0630 O.2   133  GLN133     -0.2717
     92  NE2       45.9370   39.2320    4.7350 N.am  133  GLN133     -0.0878
     93  N         46.9630   40.6370    0.4880 N.3   135  ASN135     -0.1240
     94  CA        46.3310   41.9520    0.4620 C.3   135  ASN135      0.1653
     95  C         46.8090   42.8270   -0.7060 C.2   135  ASN135      0.2266
     96  O         47.6480   42.4170   -1.4930 O.2   135  ASN135     -0.2867
     97  CB        46.5410   42.6730    1.8090 C.3   135  ASN135      0.1155
     98  CG        48.0040   42.8380    2.1540 C.2   135  ASN135      0.2627
     99  OD1       48.8160   43.2040    1.3050 O.2   135  ASN135     -0.2716
    100  ND2       48.3580   42.5370    3.3970 N.am  135  ASN135     -0.0877
    101  N         48.4530   45.6500   -0.1130 N.3   137  TYR137     -0.1227
    102  CA        49.2040   46.6040    0.7080 C.3   137  TYR137      0.1736
    103  C         50.7040   46.3340    0.7800 C.2   137  TYR137      0.2595
    104  O         51.5290   47.2390    0.5730 O.2   137  TYR137     -0.2718
    105  CB        48.6160   46.6850    2.1180 C.3   137  TYR137      0.0548
    106  CG        49.3010   47.7040    3.0080 C.ar  137  TYR137     -0.0200
    107  CD1       49.1020   49.0700    2.8130 C.ar  137  TYR137     -0.0009
    108  CD2       50.1380   47.3040    4.0410 C.ar  137  TYR137     -0.0009
    109  CE1       49.7270   50.0100    3.6190 C.ar  137  TYR137      0.0417
    110  CE2       50.7810   48.2410    4.8490 C.ar  137  TYR137      0.0417
    111  CZ        50.5670   49.5900    4.6300 C.ar  137  TYR137      0.1957
    112  OH        51.1750   50.5240    5.4350 O.3   137  TYR137     -0.2866
    113  N         51.0510   45.0920    1.0880 N.am  138  ASN138     -0.1974
    114  CA        52.4400   44.6800    1.2050 C.3   138  ASN138      0.1688
    115  C         52.5950   43.2210    0.7880 C.2   138  ASN138      0.2292
    116  O         51.6980   42.6420    0.1690 O.2   138  ASN138     -0.2864
    117  CB        52.9270   44.8740    2.6460 C.3   138  ASN138      0.1181
    118  CG        52.0800   44.1120    3.6490 C.2   138  ASN138      0.2629
    119  OD1       51.3320   43.2090    3.2810 O.2   138  ASN138     -0.2716
    120  ND2       52.1690   44.4940    4.9130 N.am  138  ASN138     -0.0877
    121  N         52.4730   40.5120    2.4690 N.3   140  ASP140     -0.1239
    122  CA        51.9300   39.4970    3.3830 C.3   140  ASP140      0.1674
    123  C         51.3070   38.3470    2.6010 C.2   140  ASP140      0.2266
    124  O         50.4280   38.5630    1.7840 O.2   140  ASP140     -0.2867
    125  CB        50.8640   40.1090    4.2910 C.3   140  ASP140      0.1410
    126  CG        51.4550   40.9570    5.4080 C.2   140  ASP140      0.3668
    127  OD1       50.6480   41.5640    6.1310 O.co2 140  ASP140     -0.2456
    128  OD2       52.7000   41.0190    5.5470 O.co2 140  ASP140     -0.2456
    129  N         49.8670   34.6370    3.8340 N.3   142  PHE142     -0.1241
    130  CA        49.7060   33.8390    5.0390 C.3   142  PHE142      0.1605
    131  C         48.7430   32.6670    4.8440 C.2   142  PHE142      0.2264
    132  O         47.6980   32.8110    4.1940 O.2   142  PHE142     -0.2867
    133  CB        49.1950   34.7100    6.1870 C.3   142  PHE142      0.0534
    134  CG        50.1550   35.7810    6.6290 C.ar  142  PHE142     -0.0203
    135  CD1       49.7050   37.0770    6.8540 C.ar  142  PHE142     -0.0042
    136  CD2       51.4800   35.4840    6.8920 C.ar  142  PHE142     -0.0042
    137  CE1       50.5670   38.0660    7.3270 C.ar  142  PHE142     -0.0003
    138  CE2       52.3670   36.4820    7.3370 C.ar  142  PHE142     -0.0003
    139  CZ        51.9170   37.7630    7.5400 C.ar  142  PHE142     -0.0000
@<TRIPOS>BOND
     1    96    95    2
     2    95    94    1
     3   101   102    1
     4   116   115    2
     5    94    93    1
     6    94    97    1
     7   104   103    2
     8    79    78    2
     9   102   103    1
    10   102   105    1
    11   103   113   am
    12   115   114    1
    13    78    77    1
    14   113   114    1
    15   114   117    1
    16    99    98    2
    17   124   123    2
    18    76    77    1
    19    97    98    1
    20    77    80    1
    21   105   106    1
    22    98   100   am
    23    86    87    2
    24    86    85    1
    25    64    63    2
    26   121   122    1
    27    70    69    1
    28    70    71    2
    29    84    85    1
    30   123   122    1
    31   117   118    1
    32    85    88    1
    33   107   106   ar
    34   107   109   ar
    35    69    68    1
    36    69    72    1
    37   106   108   ar
    38    63    68   am
    39    63    62    1
    40   119   118    2
    41    80    81    1
    42   122   125    1
    43    74    72    1
    44    55    54    2
    45   109   111   ar
    46   118   120   am
    47   129   130    1
    48    62    61    1
    49    62    65    1
    50    72    73    1
    51   108   110   ar
    52    88    89    1
    53   132   131    2
    54    82    81   ar
    55   125   126    1
    56    54    61   am
    57    54    53    1
    58    89    90    1
    59    73    75    1
    60    81    83   ar
    61    31    29   am
    62   111   110   ar
    63   111   112    1
    64    92    90   am
    65   131   130    1
    66    65    67    1
    67    65    66    1
    68   130   133    1
    69    90    91    2
    70    53    52    1
    71    53    56    1
    72   126   128   ar
    73   126   127   ar
    74    29    28    1
    75    29    30    2
    76    43    42    2
    77    10    11   ar
    78    10     8   ar
    79   133   134    1
    80    56    57    1
    81    11     9   ar
    82    28    25    1
    83     8     6   ar
    84   134   135   ar
    85   134   136   ar
    86   135   137   ar
    87   136   138   ar
    88    42    41    1
    89     9     7   ar
    90     6     7   ar
    91     6     5    1
    92    57    58    1
    93   137   139   ar
    94   138   139   ar
    95     5     2    1
    96    25    24    1
    97    25    26    1
    98    44    41    1
    99    44    45    1
   100    41    40    1
   101    59    58   ar
   102    58    60   ar
   103    40    34   am
   104    26    32   am
   105    26    27    2
   106     2     1    1
   107     2     3    1
   108    32    33    1
   109    23    22    2
   110    45    46   ar
   111    45    47   ar
   112     3     4    2
   113    46    48   ar
   114    34    33    1
   115    34    35    2
   116    22    21    1
   117    21    20    1
   118    33    36    1
   119    47    49   ar
   120    20    14   am
   121    36    37    1
   122    48    50   ar
   123    49    50   ar
   124    39    37   ar
   125    18    16    1
   126    14    13    1
   127    14    15    2
   128    37    38   ar
   129    50    51    1
   130    13    16    1
   131    13    12    1
   132    17    16    1
   133    17    19    1
