@<TRIPOS>MOLECULE
tmp/2vcqB01.pdb
 140 133 0 0 0
SMALL
GASTEIGER

@<TRIPOS>ATOM
      1  N        -42.6010  -14.1640   31.4440 N.3     7  TYR7       -0.1227
      2  CA       -43.2780  -12.9630   30.9680 C.3     7  TYR7        0.1736
      3  C        -44.7760  -13.0990   31.2660 C.2     7  TYR7        0.2595
      4  O        -45.1870  -14.0450   31.9380 O.2     7  TYR7       -0.2718
      5  CB       -43.0110  -12.7590   29.4680 C.3     7  TYR7        0.0548
      6  CG       -43.5290  -11.4550   28.8870 C.ar    7  TYR7       -0.0200
      7  CD1      -43.0400  -10.2210   29.3340 C.ar    7  TYR7       -0.0009
      8  CD2      -44.5010  -11.4580   27.8830 C.ar    7  TYR7       -0.0009
      9  CE1      -43.5140   -9.0290   28.7930 C.ar    7  TYR7        0.0417
     10  CE2      -44.9700  -10.2780   27.3280 C.ar    7  TYR7        0.0417
     11  CZ       -44.4760   -9.0640   27.7940 C.ar    7  TYR7        0.1957
     12  OH       -44.9480   -7.8990   27.2410 O.3     7  TYR7       -0.2866
     13  N        -45.5770  -12.1310   30.8290 N.am    8  PHE8       -0.1976
     14  CA       -47.0310  -12.2250   30.9790 C.3     8  PHE8        0.1639
     15  C        -47.5820  -13.1770   29.9210 C.2     8  PHE8        0.2290
     16  O        -46.8720  -13.5610   29.0000 O.2     8  PHE8       -0.2864
     17  CB       -47.6880  -10.8580   30.7870 C.3     8  PHE8        0.0560
     18  CG       -47.3170   -9.8470   31.8290 C.ar    8  PHE8       -0.0200
     19  CD1      -47.6700  -10.0340   33.1600 C.ar    8  PHE8       -0.0042
     20  CD2      -46.6460   -8.6770   31.4700 C.ar    8  PHE8       -0.0042
     21  CE1      -47.3180   -9.0850   34.1420 C.ar    8  PHE8       -0.0003
     22  CE2      -46.3030   -7.7190   32.4310 C.ar    8  PHE8       -0.0003
     23  CZ       -46.6450   -7.9240   33.7710 C.ar    8  PHE8       -0.0000
     24  N        -48.8020  -13.1230   27.1020 N.3    10  MET10      -0.1245
     25  CA       -48.9360  -12.1890   25.9870 C.3    10  MET10       0.1570
     26  C        -47.7890  -12.3760   25.0440 C.2    10  MET10       0.2261
     27  O        -46.7500  -12.9040   25.4430 O.2    10  MET10      -0.2867
     28  CB       -48.8070  -10.7340   26.4700 C.3    10  MET10       0.0387
     29  CG       -49.9470  -10.1300   27.2430 C.3    10  MET10       0.0595
     30  SD       -49.6900   -8.3440   27.3390 S.3    10  MET10      -0.1393
     31  CE       -48.2380   -8.2470   28.3580 C.3    10  MET10       0.0692
     32  N        -46.4530   -9.5940   23.3850 N.3    12  GLY12      -0.1210
     33  CA       -45.7180   -8.4520   23.9390 C.3    12  GLY12       0.1956
     34  C        -44.2310   -8.4420   23.6360 C.2    12  GLY12       0.2611
     35  O        -43.8060   -8.7200   22.5010 O.2    12  GLY12      -0.2717
     36  N        -43.4460   -8.1200   24.6560 N.am   13  ARG13      -0.1979
     37  CA       -42.0010   -7.9760   24.5170 C.3    13  ARG13       0.1597
     38  C        -41.2130   -9.2740   24.5380 C.2    13  ARG13       0.2287
     39  O        -40.0050   -9.2590   24.2770 O.2    13  ARG13      -0.2864
     40  CB       -41.4480   -7.0110   25.5760 C.3    13  ARG13       0.0334
     41  CG       -41.8400   -5.5780   25.3390 C.3    13  ARG13       0.0492
     42  CD       -41.2750   -4.6910   26.4140 C.3    13  ARG13       0.2205
     43  NE       -41.2400   -3.2860   26.0190 N.pl3  13  ARG13      -0.0865
     44  CZ       -42.1280   -2.3590   26.3850 C.cat  13  ARG13       0.5346
     45  NH1      -43.1560   -2.6610   27.1790 N.pl3  13  ARG13       0.1354
     46  NH2      -41.9740   -1.1020   25.9630 N.pl3  13  ARG13       0.1354
     47  N        -51.2740  -11.4800   36.1500 N.3    35  GLN35      -0.1245
     48  CA       -51.0750  -10.1180   36.6730 C.3    35  GLN35       0.1566
     49  C        -50.9920  -10.0590   38.1940 C.2    35  GLN35       0.2260
     50  O        -50.1390   -9.3590   38.7320 O.2    35  GLN35      -0.2867
     51  CB       -52.1890   -9.1720   36.1950 C.3    35  GLN35       0.0367
     52  CG       -52.0760   -8.6770   34.7450 C.3    35  GLN35       0.0905
     53  CD       -51.1910   -7.4290   34.5770 C.2    35  GLN35       0.2608
     54  OE1      -50.6790   -6.8640   35.5540 O.2    35  GLN35      -0.2717
     55  NE2      -51.0240   -6.9920   33.3270 N.am   35  GLN35      -0.0878
     56  N        -38.8570   -0.4200   18.0440 N.3    95  ASP95      -0.1239
     57  CA       -38.9960   -0.3730   19.4990 C.3    95  ASP95       0.1674
     58  C        -39.3440    1.0220   20.0110 C.2    95  ASP95       0.2266
     59  O        -40.1730    1.1560   20.9150 O.2    95  ASP95      -0.2867
     60  CB       -37.7230   -0.8590   20.1850 C.3    95  ASP95       0.1410
     61  CG       -37.9670   -1.2360   21.6250 C.2    95  ASP95       0.3668
     62  OD1      -38.8010   -2.1460   21.8540 O.co2  95  ASP95      -0.2456
     63  OD2      -37.3170   -0.6610   22.5130 O.co2  95  ASP95      -0.2456
     64  N        -43.1490    1.3830   19.4490 N.3    98  MET98      -0.1245
     65  CA       -43.9360    0.5390   20.3690 C.3    98  MET98       0.1570
     66  C        -43.8510    1.0140   21.8320 C.2    98  MET98       0.2261
     67  O        -44.8270    0.9370   22.5800 O.2    98  MET98      -0.2867
     68  CB       -43.5180   -0.9360   20.2650 C.3    98  MET98       0.0387
     69  CG       -43.6330   -1.5290   18.8700 C.3    98  MET98       0.0595
     70  SD       -45.2760   -1.3720   18.1350 S.3    98  MET98      -0.1393
     71  CE       -46.1470   -2.7090   18.9390 C.3    98  MET98       0.0692
     72  N        -48.8450    1.2750   27.7540 N.3   103  TRP103     -0.1227
     73  CA       -49.3430   -0.0900   27.9760 C.3   103  TRP103      0.1737
     74  C        -49.9070   -0.3320   29.3740 C.2   103  TRP103      0.2595
     75  O        -50.8260   -1.1370   29.5310 O.2   103  TRP103     -0.2718
     76  CB       -48.2360   -1.1390   27.6940 C.3   103  TRP103      0.0564
     77  CG       -47.6840   -1.0890   26.2990 C.ar  103  TRP103      0.0003
     78  CD1      -46.4860   -0.5740   25.9100 C.ar  103  TRP103      0.0946
     79  CD2      -48.3320   -1.5580   25.1070 C.ar  103  TRP103      0.0152
     80  NE1      -46.3490   -0.6830   24.5400 N.ar  103  TRP103     -0.2442
     81  CE2      -47.4690   -1.2860   24.0290 C.ar  103  TRP103      0.0810
     82  CE3      -49.5680   -2.1780   24.8490 C.ar  103  TRP103      0.0012
     83  CZ2      -47.7930   -1.6100   22.7080 C.ar  103  TRP103      0.0191
     84  CZ3      -49.8950   -2.4940   23.5310 C.ar  103  TRP103      0.0001
     85  CH2      -49.0070   -2.2150   22.4780 C.ar  103  TRP103      0.0015
     86  N        -49.3490    0.3530   30.3740 N.am  104  ALA104     -0.1980
     87  CA       -49.7530    0.1680   31.7740 C.3   104  ALA104      0.1597
     88  C        -50.6860    1.2470   32.3320 C.2   104  ALA104      0.2287
     89  O        -50.9840    1.2510   33.5310 O.2   104  ALA104     -0.2864
     90  CB       -48.5200    0.0250   32.6610 C.3   104  ALA104      0.0319
     91  N        -55.9210    6.2560   28.2630 N.3   111  LYS111     -0.1245
     92  CA       -55.1680    5.1950   27.6000 C.3   111  LYS111      0.1561
     93  C        -55.5710    5.0470   26.1420 C.2   111  LYS111      0.2260
     94  O        -54.7100    5.1130   25.2610 O.2   111  LYS111     -0.2867
     95  CB       -55.3390    3.8630   28.3350 C.3   111  LYS111      0.0271
     96  CG       -54.5230    2.7180   27.7530 C.3   111  LYS111      0.0035
     97  CD       -54.7500    1.4480   28.5300 C.3   111  LYS111      0.0206
     98  CE       -53.9330    0.3170   27.9490 C.3   111  LYS111      0.1093
     99  NZ       -54.2360   -0.9690   28.6240 N.3   111  LYS111     -0.1314
    100  N        -38.8970   -8.9550   14.1060 N.3   151  TYR151     -0.1241
    101  CA       -39.4360   -7.8630   14.9210 C.3   151  TYR151      0.1605
    102  C        -40.5140   -7.0650   14.1830 C.2   151  TYR151      0.2264
    103  O        -41.5120   -6.6700   14.7770 O.2   151  TYR151     -0.2867
    104  CB       -38.3260   -6.9890   15.4970 C.3   151  TYR151      0.0534
    105  CG       -38.7170   -6.3490   16.8150 C.ar  151  TYR151     -0.0201
    106  CD1      -39.3500   -7.0970   17.8180 C.ar  151  TYR151     -0.0009
    107  CD2      -38.3990   -5.0230   17.0940 C.ar  151  TYR151     -0.0009
    108  CE1      -39.6990   -6.5140   19.0470 C.ar  151  TYR151      0.0417
    109  CE2      -38.7330   -4.4450   18.3120 C.ar  151  TYR151      0.0417
    110  CZ       -39.3790   -5.1810   19.2820 C.ar  151  TYR151      0.1957
    111  OH       -39.6670   -4.5810   20.5020 O.3   151  TYR151     -0.2866
    112  N        -43.7660   -9.1390   14.2060 N.3   154  ILE154     -0.1231
    113  CA       -44.2860   -9.1030   15.5750 C.3   154  ILE154      0.1692
    114  C        -44.9640   -7.7660   15.9100 C.2   154  ILE154      0.2592
    115  O        -46.1250   -7.7410   16.3410 O.2   154  ILE154     -0.2718
    116  CB       -43.1670   -9.4420   16.5680 C.3   154  ILE154      0.0266
    117  CG1      -42.8220  -10.9400   16.4360 C.3   154  ILE154      0.0019
    118  CG2      -43.5820   -9.1120   18.0000 C.3   154  ILE154      0.0020
    119  CD1      -41.5400  -11.3740   17.1380 C.3   154  ILE154      0.0001
    120  N        -44.2370   -6.6680   15.7320 N.am  155  CYS155     -0.1970
    121  CA       -44.7780   -5.3390   15.9870 C.3   155  CYS155      0.1712
    122  C        -46.0070   -5.0330   15.1360 C.2   155  CYS155      0.2296
    123  O        -47.0250   -4.5860   15.6650 O.2   155  CYS155     -0.2864
    124  CB       -43.6990   -4.2630   15.8150 C.3   155  CYS155      0.0983
    125  SG       -42.4050   -4.3590   17.0820 S.3   155  CYS155     -0.0798
    126  N        -49.3880   -6.6380   16.2120 N.3   158  THR158     -0.1218
    127  CA       -50.0880   -5.8930   17.2670 C.3   158  THR158      0.1862
    128  C        -50.6950   -4.5740   16.7710 C.2   158  THR158      0.2287
    129  O        -51.8210   -4.2270   17.1390 O.2   158  THR158     -0.2866
    130  CB       -49.1910   -5.6820   18.5150 C.3   158  THR158      0.1770
    131  OG1      -48.9510   -6.9460   19.1380 O.3   158  THR158     -0.2211
    132  CG2      -49.8630   -4.7580   19.5320 C.3   158  THR158      0.0375
    133  N        -52.7510   -9.2490   22.8030 N.3   198  LEU198     -0.1245
    134  CA       -51.4480   -8.5720   22.7400 C.3   198  LEU198      0.1561
    135  C        -50.2550   -9.5030   22.9500 C.2   198  LEU198      0.2260
    136  O        -50.4120  -10.6880   23.2350 O.2   198  LEU198     -0.2867
    137  CB       -51.3900   -7.4530   23.7880 C.3   198  LEU198      0.0270
    138  CG       -52.5290   -6.4400   23.8200 C.3   198  LEU198      0.0019
    139  CD1      -52.3410   -5.4630   24.9880 C.3   198  LEU198      0.0001
    140  CD2      -52.6200   -5.7120   22.5110 C.3   198  LEU198      0.0001
@<TRIPOS>BOND
     1   100   101    1
     2   102   103    2
     3   102   101    1
     4   112   113    1
     5   101   104    1
     6   122   123    2
     7   122   121    1
     8   104   105    1
     9   113   114    1
    10   113   116    1
    11   120   114   am
    12   120   121    1
    13   124   121    1
    14   124   125    1
    15   114   115    2
    16   126   127    1
    17   117   116    1
    18   117   119    1
    19   116   118    1
    20   128   129    2
    21   128   127    1
    22   105   107   ar
    23   105   106   ar
    24   107   109   ar
    25   127   130    1
    26   106   108   ar
    27    56    57    1
    28    70    69    1
    29    70    71    1
    30   109   110   ar
    31   130   131    1
    32   130   132    1
    33    69    68    1
    34   108   110   ar
    35   110   111    1
    36    64    65    1
    37    57    58    1
    38    57    60    1
    39    58    59    2
    40    60    61    1
    41    68    65    1
    42    65    66    1
    43    61    62   ar
    44    61    63   ar
    45    66    67    2
    46    85    83   ar
    47    85    84   ar
    48    35    34    2
    49   140   138    1
    50    83    81   ar
    51   134   133    1
    52   134   135    1
    53   134   137    1
    54   135   136    2
    55    32    33    1
    56    84    82   ar
    57    34    33    1
    58    34    36   am
    59   137   138    1
    60   138   139    1
    61    81    80   ar
    62    81    79   ar
    63    39    38    2
    64    37    38    1
    65    37    36    1
    66    37    40    1
    67    80    78   ar
    68    82    79   ar
    69    26    27    2
    70    26    25    1
    71    79    77   ar
    72    94    93    2
    73    41    40    1
    74    41    42    1
    75    78    77   ar
    76    46    44    1
    77    25    28    1
    78    25    24    1
    79    43    44    2
    80    43    42    1
    81    93    92    1
    82    77    76    1
    83    44    45    1
    84    28    29    1
    85    12    11    1
    86    29    30    1
    87    10    11   ar
    88    10     8   ar
    89    30    31    1
    90    92    91    1
    91    92    95    1
    92    76    73    1
    93    96    95    1
    94    96    97    1
    95    72    73    1
    96    11     9   ar
    97     8     6   ar
    98    98    97    1
    99    98    99    1
   100    73    74    1
   101     9     7   ar
   102     6     7   ar
   103     6     5    1
   104    16    15    2
   105    74    75    2
   106    74    86   am
   107     5     2    1
   108    15    14    1
   109    86    87    1
   110    17    14    1
   111    17    18    1
   112    13    14    1
   113    13     3   am
   114     2     3    1
   115     2     1    1
   116     3     4    2
   117    20    18   ar
   118    20    22   ar
   119    87    88    1
   120    87    90    1
   121    18    19   ar
   122    88    89    2
   123    22    23   ar
   124    19    21   ar
   125    55    53   am
   126    23    21   ar
   127    53    52    1
   128    53    54    2
   129    52    51    1
   130    47    48    1
   131    51    48    1
   132    48    49    1
   133    49    50    2
