@<TRIPOS>MOLECULE
tmp/2vcvA00.pdb
 122 118 0 0 0
SMALL
GASTEIGER

@<TRIPOS>ATOM
      1  N        -31.4900   22.3980    0.8770 N.3     6  TYR6       -0.1227
      2  CA       -32.0640   21.0750    1.0880 C.3     6  TYR6        0.1736
      3  C        -31.5320   20.1280    0.0230 C.2     6  TYR6        0.2595
      4  O        -30.8250   20.5510   -0.8920 O.2     6  TYR6       -0.2718
      5  CB       -33.5980   21.1370    1.0230 C.3     6  TYR6        0.0548
      6  CG       -34.3030   20.0860    1.8570 C.ar    6  TYR6       -0.0200
      7  CD1      -34.0790   19.9980    3.2330 C.ar    6  TYR6       -0.0009
      8  CD2      -35.2030   19.1860    1.2710 C.ar    6  TYR6       -0.0009
      9  CE1      -34.7200   19.0310    4.0080 C.ar    6  TYR6        0.0417
     10  CE2      -35.8420   18.2110    2.0440 C.ar    6  TYR6        0.0417
     11  CZ       -35.5990   18.1450    3.4100 C.ar    6  TYR6        0.1957
     12  OH       -36.2380   17.2030    4.1890 O.3     6  TYR6       -0.2866
     13  N        -31.8820   18.8530    0.1390 N.am    7  PHE7       -0.1976
     14  CA       -31.6560   17.9190   -0.9440 C.3     7  PHE7        0.1639
     15  C        -32.6980   18.1670   -2.0550 C.2     7  PHE7        0.2290
     16  O        -33.7280   18.8170   -1.8240 O.2     7  PHE7       -0.2864
     17  CB       -31.6310   16.4710   -0.4110 C.3     7  PHE7        0.0560
     18  CG       -32.9220   15.7090   -0.5870 C.ar    7  PHE7       -0.0200
     19  CD1      -33.9990   15.9170    0.2710 C.ar    7  PHE7       -0.0042
     20  CD2      -33.0410   14.7500   -1.5940 C.ar    7  PHE7       -0.0042
     21  CE1      -35.1850   15.2080    0.1100 C.ar    7  PHE7       -0.0003
     22  CE2      -34.2190   14.0350   -1.7670 C.ar    7  PHE7       -0.0003
     23  CZ       -35.2960   14.2610   -0.9080 C.ar    7  PHE7       -0.0000
     24  N        -39.2430   16.1690    0.9730 N.3    11  GLY11      -0.1210
     25  CA       -39.0080   16.1080    2.4130 C.3    11  GLY11       0.1956
     26  C        -39.8240   17.1220    3.1870 C.2    11  GLY11       0.2611
     27  O        -41.0440   17.2560    2.9910 O.2    11  GLY11      -0.2717
     28  N        -39.1340   17.8480    4.0570 N.am   12  ARG12      -0.1979
     29  CA       -39.7450   18.8780    4.8920 C.3    12  ARG12       0.1597
     30  C        -39.7060   20.2650    4.2480 C.2    12  ARG12       0.2287
     31  O        -40.3810   21.1790    4.7150 O.2    12  ARG12      -0.2864
     32  CB       -39.0590   18.9270    6.2600 C.3    12  ARG12       0.0334
     33  CG       -39.1520   17.6360    7.0220 C.3    12  ARG12       0.0492
     34  CD       -38.9870   17.8450    8.5270 C.3    12  ARG12       0.2205
     35  NE       -39.0470   16.5480    9.1880 N.pl3  12  ARG12      -0.0865
     36  CZ       -40.1610   15.9590    9.6130 C.cat  12  ARG12       0.5346
     37  NH1      -41.3520   16.5510    9.4960 N.pl3  12  ARG12       0.1354
     38  NH2      -40.0690   14.7650   10.1750 N.pl3  12  ARG12       0.1354
     39  N        -45.5730   11.6980    4.8570 N.3   104  LEU104     -0.1231
     40  CA       -44.1370   11.9180    4.7240 C.3   104  LEU104      0.1693
     41  C        -43.2930   10.6860    5.0650 C.2   104  LEU104      0.2591
     42  O        -42.3520   10.3560    4.3470 O.2   104  LEU104     -0.2718
     43  CB       -43.7150   13.0810    5.6230 C.3   104  LEU104      0.0284
     44  CG       -42.2410   13.4680    5.6610 C.3   104  LEU104      0.0019
     45  CD1      -41.7980   13.9550    4.2880 C.3   104  LEU104      0.0001
     46  CD2      -42.0530   14.5350    6.7070 C.3   104  LEU104      0.0001
     47  N        -43.6350   10.0170    6.1640 N.am  105  LEU105     -0.1980
     48  CA       -42.7750    8.9810    6.7360 C.3   105  LEU105      0.1596
     49  C        -43.1000    7.5750    6.2170 C.2   105  LEU105      0.2287
     50  O        -42.3800    6.6200    6.5060 O.2   105  LEU105     -0.2864
     51  CB       -42.8260    9.0260    8.2700 C.3   105  LEU105      0.0297
     52  CG       -42.4090   10.3270    8.9490 C.3   105  LEU105      0.0022
     53  CD1      -42.8120   10.2830   10.4180 C.3   105  LEU105      0.0001
     54  CD2      -40.9150   10.6000    8.7890 C.3   105  LEU105      0.0001
     55  N        -42.5000    5.9880    3.4020 N.3   107  PRO107     -0.2102
     56  CA       -41.3440    5.2250    2.8840 C.3   107  PRO107      0.1504
     57  C        -40.4900    4.5140    3.9420 C.2   107  PRO107      0.2575
     58  O        -39.7860    3.5530    3.6110 O.2   107  PRO107     -0.2718
     59  CB       -40.5050    6.2930    2.1800 C.3   107  PRO107      0.0282
     60  CG       -41.4890    7.3000    1.7490 C.3   107  PRO107      0.0208
     61  CD       -42.4860    7.3700    2.8790 C.3   107  PRO107      0.0893
     62  N        -40.5480    4.9770    5.1890 N.am  108  LEU108     -0.1980
     63  CA       -39.7540    4.3790    6.2690 C.3   108  LEU108      0.1596
     64  C        -40.3890    3.1330    6.8880 C.2   108  LEU108      0.2287
     65  O        -39.7440    2.4240    7.6640 O.2   108  LEU108     -0.2864
     66  CB       -39.4630    5.4030    7.3700 C.3   108  LEU108      0.0297
     67  CG       -38.7170    6.6900    7.0020 C.3   108  LEU108      0.0022
     68  CD1      -38.5270    7.4980    8.2560 C.3   108  LEU108      0.0001
     69  CD2      -37.3710    6.4120    6.3180 C.3   108  LEU108      0.0001
     70  N        -41.3940   10.9790   -3.4520 N.3   205  ALA205     -0.1231
     71  CA       -40.2170   10.1710   -3.1710 C.3   205  ALA205      0.1694
     72  C        -40.4150    8.7620   -3.7240 C.2   205  ALA205      0.2592
     73  O        -41.5130    8.2030   -3.6400 O.2   205  ALA205     -0.2718
     74  CB       -39.9350   10.1280   -1.6820 C.3   205  ALA205      0.0304
     75  N        -39.3650    8.2220   -4.3330 N.am  206  ASP206     -0.1974
     76  CA       -39.3730    6.8360   -4.7840 C.3   206  ASP206      0.1709
     77  C        -38.2150    6.0950   -4.1400 C.2   206  ASP206      0.2293
     78  O        -37.5750    6.6200   -3.2260 O.2   206  ASP206     -0.2864
     79  CB       -39.3440    6.7250   -6.3250 C.3   206  ASP206      0.1436
     80  CG       -38.1180    7.3720   -6.9520 C.2   206  ASP206      0.3671
     81  OD1      -37.0870    7.5390   -6.2710 O.co2 206  ASP206     -0.2456
     82  OD2      -38.1850    7.7100   -8.1500 O.co2 206  ASP206     -0.2456
     83  N        -34.7190    7.7730   -4.2600 N.3   209  ALA209     -0.1231
     84  CA       -34.7690    8.9910   -3.4540 C.3   209  ALA209      0.1694
     85  C        -34.5300    8.6910   -1.9700 C.2   209  ALA209      0.2591
     86  O        -33.8480    9.4540   -1.2830 O.2   209  ALA209     -0.2718
     87  CB       -36.0910    9.7200   -3.6620 C.3   209  ALA209      0.0304
     88  N        -35.0850    7.5760   -1.4900 N.am  210  LEU210     -0.1980
     89  CA       -34.8640    7.1130   -0.1150 C.3   210  LEU210      0.1596
     90  C        -33.4150    6.6630    0.1030 C.2   210  LEU210      0.2287
     91  O        -32.8190    6.9760    1.1360 O.2   210  LEU210     -0.2864
     92  CB       -35.8550    5.9960    0.2690 C.3   210  LEU210      0.0297
     93  CG       -35.7790    5.3650    1.6740 C.3   210  LEU210      0.0022
     94  CD1      -35.8920    6.3980    2.7940 C.3   210  LEU210      0.0001
     95  CD2      -36.8260    4.2690    1.8630 C.3   210  LEU210      0.0001
     96  N        -31.1760    9.9270    0.1440 N.3   213  ALA213     -0.1245
     97  CA       -31.3680   10.7030    1.3700 C.3   213  ALA213      0.1562
     98  C        -30.7130   10.0350    2.5790 C.2   213  ALA213      0.2260
     99  O        -30.1840   10.7220    3.4480 O.2   213  ALA213     -0.2867
    100  CB       -32.8410   10.9470    1.6260 C.3   213  ALA213      0.0290
    101  N        -28.2130   12.0420    5.0420 N.3   217  PHE217     -0.1241
    102  CA       -28.6970   12.3900    6.3900 C.3   217  PHE217      0.1605
    103  C        -28.3770   11.3770    7.4970 C.2   217  PHE217      0.2264
    104  O        -28.4900   11.7000    8.6840 O.2   217  PHE217     -0.2867
    105  CB       -30.2090   12.6520    6.3650 C.3   217  PHE217      0.0534
    106  CG       -30.6170   13.8200    5.5070 C.ar  217  PHE217     -0.0203
    107  CD1      -30.3250   15.1230    5.8930 C.ar  217  PHE217     -0.0042
    108  CD2      -31.3130   13.6160    4.3200 C.ar  217  PHE217     -0.0042
    109  CE1      -30.7080   16.1990    5.1040 C.ar  217  PHE217     -0.0003
    110  CE2      -31.7020   14.6890    3.5240 C.ar  217  PHE217     -0.0003
    111  CZ       -31.3980   15.9820    3.9190 C.ar  217  PHE217     -0.0000
    112  N        -29.8950    8.3520    8.4130 N.3   219  PHE219     -0.1241
    113  CA       -31.0060    7.7840    9.1800 C.3   219  PHE219      0.1605
    114  C        -31.2450    6.3120    8.8290 C.2   219  PHE219      0.2264
    115  O        -31.8670    5.5670    9.5980 O.2   219  PHE219     -0.2867
    116  CB       -32.2870    8.6210    9.0080 C.3   219  PHE219      0.0534
    117  CG       -32.7710    8.7220    7.5870 C.ar  219  PHE219     -0.0203
    118  CD1      -33.7310    7.8430    7.1010 C.ar  219  PHE219     -0.0042
    119  CD2      -32.2750    9.7040    6.7360 C.ar  219  PHE219     -0.0042
    120  CE1      -34.1840    7.9350    5.7860 C.ar  219  PHE219     -0.0003
    121  CE2      -32.7250    9.8040    5.4230 C.ar  219  PHE219     -0.0003
    122  CZ       -33.6810    8.9160    4.9480 C.ar  219  PHE219     -0.0000
@<TRIPOS>BOND
     1    82    80   ar
     2    80    79    1
     3    80    81   ar
     4    79    76    1
     5    76    75    1
     6    76    77    1
     7    75    72   am
     8    83    84    1
     9    77    78    2
    10    72    73    2
    11    72    71    1
    12    87    84    1
    13    84    85    1
    14    70    71    1
    15    71    74    1
    16    15    16    2
    17    15    14    1
    18    85    88   am
    19    85    86    2
    20    22    20   ar
    21    22    23   ar
    22    20    18   ar
    23    88    89    1
    24    14    17    1
    25    14    13    1
    26    23    21   ar
    27     4     3    2
    28    18    17    1
    29    18    19   ar
    30    89    90    1
    31    89    92    1
    32     3    13   am
    33     3     2    1
    34    90    91    2
    35    21    19   ar
    36    96    97    1
    37    92    93    1
    38     1     2    1
    39    24    25    1
    40     5     2    1
    41     5     6    1
    42     8     6   ar
    43     8    10   ar
    44    97   100    1
    45    97    98    1
    46    93    95    1
    47    93    94    1
    48    60    59    1
    49    60    61    1
    50     6     7   ar
    51    10    11   ar
    52    59    56    1
    53    25    26    1
    54    98    99    2
    55    61    55    1
    56    56    55    1
    57    56    57    1
    58    27    26    2
    59    26    28   am
    60     7     9   ar
    61    11     9   ar
    62    11    12    1
    63   110   111   ar
    64   110   108   ar
    65    58    57    2
    66   111   109   ar
    67    57    62   am
    68    28    29    1
    69    30    31    2
    70    30    29    1
    71    45    44    1
    72   108   106   ar
    73    42    41    2
    74    40    39    1
    75    40    41    1
    76    40    43    1
    77    29    32    1
    78   122   121   ar
    79   122   120   ar
    80   101   102    1
    81    41    47   am
    82   109   107   ar
    83    62    63    1
    84   121   119   ar
    85   106   107   ar
    86   106   105    1
    87    43    44    1
    88    44    46    1
    89   120   118   ar
    90    47    48    1
    91    49    50    2
    92    49    48    1
    93    32    33    1
    94    63    64    1
    95    63    66    1
    96    69    67    1
    97   105   102    1
    98   102   103    1
    99   119   117   ar
   100    48    51    1
   101    64    65    2
   102    67    66    1
   103    67    68    1
   104    33    34    1
   105   118   117   ar
   106   103   104    2
   107   117   116    1
   108    51    52    1
   109   112   113    1
   110    34    35    1
   111    54    52    1
   112   114   113    1
   113   114   115    2
   114    52    53    1
   115   116   113    1
   116    35    36    2
   117    37    36    1
   118    36    38    1
