@<TRIPOS>MOLECULE
tmp/2vcwB01.pdb
 109 105 0 0 0
SMALL
GASTEIGER

@<TRIPOS>ATOM
      1  N         14.1360   18.4800    8.6080 N.3     7  TYR7       -0.1227
      2  CA        12.9480   17.7500    8.1670 C.3     7  TYR7        0.1736
      3  C         13.1510   16.2620    8.4040 C.2     7  TYR7        0.2595
      4  O         14.1870   15.8490    8.9160 O.2     7  TYR7       -0.2718
      5  CB        12.7010   18.0470    6.6800 C.3     7  TYR7        0.0548
      6  CG        11.3850   17.5470    6.1130 C.ar    7  TYR7       -0.0200
      7  CD1       10.1610   18.0240    6.6140 C.ar    7  TYR7       -0.0009
      8  CD2       11.3580   16.6440    5.0370 C.ar    7  TYR7       -0.0009
      9  CE1        8.9410   17.5820    6.0830 C.ar    7  TYR7        0.0417
     10  CE2       10.1380   16.2010    4.4910 C.ar    7  TYR7        0.0417
     11  CZ         8.9390   16.6850    5.0220 C.ar    7  TYR7        0.1957
     12  OH         7.7440   16.2660    4.4970 O.3     7  TYR7       -0.2866
     13  N         12.1570   15.4490    8.0580 N.am    8  PHE8       -0.1976
     14  CA        12.3060   14.0120    8.1840 C.3     8  PHE8        0.1639
     15  C         13.2590   13.4960    7.1080 C.2     8  PHE8        0.2290
     16  O         13.6850   14.2540    6.2290 O.2     8  PHE8       -0.2864
     17  CB        10.9520   13.3230    8.0620 C.3     8  PHE8        0.0560
     18  CG         9.9840   13.6810    9.1530 C.ar    8  PHE8       -0.0200
     19  CD1       10.1830   13.2190   10.4570 C.ar    8  PHE8       -0.0042
     20  CD2        8.8520   14.4370    8.8770 C.ar    8  PHE8       -0.0042
     21  CE1        9.2910   13.5320   11.4700 C.ar    8  PHE8       -0.0003
     22  CE2        7.9380   14.7440    9.8920 C.ar    8  PHE8       -0.0003
     23  CZ         8.1560   14.2920   11.1810 C.ar    8  PHE8       -0.0000
     24  N         13.1330   12.1870    4.2120 N.3    10  MET10      -0.1245
     25  CA        12.3120   11.9640    3.0150 C.3    10  MET10       0.1570
     26  C         12.3320   13.1950    2.1490 C.2    10  MET10       0.2261
     27  O         12.7930   14.2320    2.5810 O.2    10  MET10      -0.2867
     28  CB        10.8630   11.5510    3.3440 C.3    10  MET10       0.0387
     29  CG        10.0960   12.3770    4.3500 C.3    10  MET10       0.0595
     30  SD         8.4550   11.6400    4.6810 S.3    10  MET10      -0.1393
     31  CE         8.9150    9.9530    5.0360 C.3    10  MET10       0.0692
     32  N          9.4260   14.5740    0.6440 N.3    12  GLY12      -0.1210
     33  CA         8.2660   15.2780    1.2180 C.3    12  GLY12       0.1956
     34  C          8.2320   16.7690    0.9410 C.2    12  GLY12       0.2611
     35  O          8.4820   17.2190   -0.1860 O.2    12  GLY12      -0.2717
     36  N          7.9320   17.5400    1.9780 N.am   13  ARG13      -0.1979
     37  CA         7.7830   18.9800    1.8340 C.3    13  ARG13       0.1597
     38  C          9.1010   19.7630    1.8260 C.2    13  ARG13       0.2287
     39  O          9.1150   20.9300    1.4670 O.2    13  ARG13      -0.2864
     40  CB         6.7860   19.5240    2.8610 C.3    13  ARG13       0.0334
     41  CG         5.3700   19.0680    2.5450 C.3    13  ARG13       0.0492
     42  CD         4.3480   19.5980    3.5290 C.3    13  ARG13       0.2205
     43  NE         2.9910   19.3630    3.0280 N.pl3  13  ARG13      -0.0865
     44  CZ         2.3530   20.1770    2.1780 C.cat  13  ARG13       0.5346
     45  NH1        2.9380   21.2880    1.7280 N.pl3  13  ARG13       0.1354
     46  NH2        1.1200   19.8760    1.7710 N.pl3  13  ARG13       0.1354
     47  N         -1.8800   17.9450   -3.1400 N.3    98  MET98      -0.1245
     48  CA        -0.9970   17.1340   -2.2680 C.3    98  MET98       0.1570
     49  C         -1.4270   17.1860   -0.7800 C.2    98  MET98       0.2261
     50  O         -1.2250   16.2230   -0.0270 O.2    98  MET98      -0.2867
     51  CB         0.4650   17.5480   -2.4170 C.3    98  MET98       0.0387
     52  CG         1.0130   17.4660   -3.8330 C.3    98  MET98       0.0595
     53  SD         0.8450   15.8470   -4.5930 S.3    98  MET98      -0.1393
     54  CE         2.0910   14.8910   -3.7310 C.3    98  MET98       0.0692
     55  N         -1.5040   12.0300    5.0550 N.3   103  TRP103     -0.1241
     56  CA        -0.1340   11.5090    5.2190 C.3   103  TRP103      0.1605
     57  C          0.1410   10.9140    6.6000 C.2   103  TRP103      0.2264
     58  O          0.9270    9.9760    6.7350 O.2   103  TRP103     -0.2867
     59  CB         0.9080   12.6040    4.9510 C.3   103  TRP103      0.0550
     60  CG         0.8290   13.2200    3.5890 C.ar  103  TRP103      0.0003
     61  CD1        0.3210   14.4520    3.2710 C.ar  103  TRP103      0.0946
     62  CD2        1.2490   12.6260    2.3530 C.ar  103  TRP103      0.0152
     63  NE1        0.4080   14.6650    1.9050 N.ar  103  TRP103     -0.2442
     64  CE2        0.9860   13.5660    1.3240 C.ar  103  TRP103      0.0810
     65  CE3        1.8510   11.4050    2.0190 C.ar  103  TRP103      0.0012
     66  CZ2        1.2820   13.3080   -0.0210 C.ar  103  TRP103      0.0191
     67  CZ3        2.1500   11.1500    0.6750 C.ar  103  TRP103      0.0001
     68  CH2        1.8590   12.0990   -0.3230 C.ar  103  TRP103      0.0015
     69  N          8.4400   22.1280   -8.5680 N.3   151  TYR151     -0.1241
     70  CA         7.3640   21.5990   -7.7250 C.3   151  TYR151      0.1605
     71  C          6.5330   20.5570   -8.4610 C.2   151  TYR151      0.2264
     72  O          6.1260   19.5660   -7.8720 O.2   151  TYR151     -0.2867
     73  CB         6.4770   22.7300   -7.1520 C.3   151  TYR151      0.0534
     74  CG         5.8360   22.3710   -5.8160 C.ar  151  TYR151     -0.0201
     75  CD1        6.6090   21.8960   -4.7620 C.ar  151  TYR151     -0.0009
     76  CD2        4.4710   22.5490   -5.5930 C.ar  151  TYR151     -0.0009
     77  CE1        6.0290   21.5530   -3.5310 C.ar  151  TYR151      0.0417
     78  CE2        3.8850   22.2260   -4.3580 C.ar  151  TYR151      0.0417
     79  CZ         4.6700   21.7280   -3.3360 C.ar  151  TYR151      0.1957
     80  OH         4.1060   21.4160   -2.1060 O.3   151  TYR151     -0.2866
     81  N          8.5730   17.3380   -8.4630 N.3   154  ILE154     -0.1231
     82  CA         8.5580   16.7990   -7.0990 C.3   154  ILE154      0.1692
     83  C          7.2230   16.1340   -6.7380 C.2   154  ILE154      0.2592
     84  O          7.1950   14.9870   -6.2780 O.2   154  ILE154     -0.2718
     85  CB         8.9350   17.9170   -6.0840 C.3   154  ILE154      0.0266
     86  CG1       10.3840   18.3630   -6.3290 C.3   154  ILE154      0.0019
     87  CG2        8.7470   17.4240   -4.6260 C.3   154  ILE154      0.0020
     88  CD1       10.7830   19.6340   -5.5820 C.3   154  ILE154      0.0001
     89  N          6.1180   16.8500   -6.9460 N.am  155  CYS155     -0.1970
     90  CA         4.7960   16.3230   -6.6520 C.3   155  CYS155      0.1712
     91  C          4.4680   15.0890   -7.5090 C.2   155  CYS155      0.2296
     92  O          3.9680   14.0800   -6.9880 O.2   155  CYS155     -0.2864
     93  CB         3.7240   17.3960   -6.8620 C.3   155  CYS155      0.0983
     94  SG         3.7540   18.7220   -5.6190 S.3   155  CYS155     -0.0798
     95  N          6.2270   11.8050   -6.3730 N.3   158  THR158     -0.1218
     96  CA         5.4960   11.1270   -5.2860 C.3   158  THR158      0.1862
     97  C          4.1700   10.4810   -5.7360 C.2   158  THR158      0.2287
     98  O          3.8650    9.3420   -5.3460 O.2   158  THR158     -0.2866
     99  CB         5.2950   12.0730   -4.0910 C.3   158  THR158      0.1770
    100  OG1        6.5760   12.3200   -3.5100 O.3   158  THR158     -0.2211
    101  CG2        4.3990   11.4430   -3.0150 C.3   158  THR158      0.0375
    102  N          9.1620    8.3190   -0.0080 N.3   198  LEU198     -0.1245
    103  CA         8.4660    9.5930   -0.0940 C.3   198  LEU198      0.1561
    104  C          9.4130   10.7720    0.1100 C.2   198  LEU198      0.2260
    105  O         10.6210   10.5850    0.3170 O.2   198  LEU198     -0.2867
    106  CB         7.3360    9.6510    0.9470 C.3   198  LEU198      0.0270
    107  CG         6.2510    8.5700    0.8620 C.3   198  LEU198      0.0019
    108  CD1        5.2500    8.7320    1.9970 C.3   198  LEU198      0.0001
    109  CD2        5.5380    8.5870   -0.4930 C.3   198  LEU198      0.0001
@<TRIPOS>BOND
     1    69    70    1
     2    81    82    1
     3    71    72    2
     4    71    70    1
     5    70    73    1
     6    91    92    2
     7    91    90    1
     8    73    74    1
     9    82    83    1
    10    82    85    1
    11    89    83   am
    12    89    90    1
    13    93    90    1
    14    93    94    1
    15    83    84    2
    16    95    96    1
    17    86    85    1
    18    86    88    1
    19    85    87    1
    20    74    76   ar
    21    74    75   ar
    22    97    98    2
    23    97    96    1
    24    76    78   ar
    25    96    99    1
    26    75    77   ar
    27    53    52    1
    28    53    54    1
    29    78    79   ar
    30    99   100    1
    31    99   101    1
    32    52    51    1
    33    77    79   ar
    34    79    80    1
    35    47    48    1
    36    51    48    1
    37    48    49    1
    38    49    50    2
    39   109   107    1
    40    68    66   ar
    41    68    67   ar
    42    35    34    2
    43   103   102    1
    44   103   104    1
    45   103   106    1
    46    66    64   ar
    47   104   105    2
    48    32    33    1
    49    67    65   ar
    50   107   106    1
    51   107   108    1
    52    34    33    1
    53    34    36   am
    54    64    63   ar
    55    64    62   ar
    56    39    38    2
    57    45    44    1
    58    46    44    1
    59    38    37    1
    60    37    36    1
    61    37    40    1
    62    63    61   ar
    63    65    62   ar
    64    26    27    2
    65    26    25    1
    66    44    43    2
    67    62    60   ar
    68    41    40    1
    69    41    42    1
    70    25    28    1
    71    25    24    1
    72    43    42    1
    73    61    60   ar
    74    28    29    1
    75    60    59    1
    76    29    30    1
    77    10    11   ar
    78    10     8   ar
    79    12    11    1
    80    30    31    1
    81    59    56    1
    82    11     9   ar
    83     8     6   ar
    84    55    56    1
    85    56    57    1
    86     9     7   ar
    87     6     7   ar
    88     6     5    1
    89    16    15    2
    90    57    58    2
    91     5     2    1
    92    15    14    1
    93    13    14    1
    94    13     3   am
    95    17    14    1
    96    17    18    1
    97     2     3    1
    98     2     1    1
    99     3     4    2
   100    20    18   ar
   101    20    22   ar
   102    18    19   ar
   103    22    23   ar
   104    19    21   ar
   105    23    21   ar
