@<TRIPOS>MOLECULE
tmp/2vcxC01.pdb
 131 125 0 0 0
SMALL
GASTEIGER

@<TRIPOS>ATOM
      1  N         27.2220  -16.9140  -20.2060 N.3     7  TYR7       -0.1227
      2  CA        28.2780  -15.9480  -19.9040 C.3     7  TYR7        0.1736
      3  C         29.4590  -16.7010  -19.2810 C.2     7  TYR7        0.2595
      4  O         29.3970  -17.9290  -19.1370 O.2     7  TYR7       -0.2718
      5  CB        27.7400  -14.8810  -18.9250 C.3     7  TYR7        0.0548
      6  CG        28.6010  -13.6400  -18.8210 C.ar    7  TYR7       -0.0200
      7  CD1       28.8330  -12.8450  -19.9390 C.ar    7  TYR7       -0.0009
      8  CD2       29.1570  -13.2420  -17.6070 C.ar    7  TYR7       -0.0009
      9  CE1       29.6020  -11.7020  -19.8650 C.ar    7  TYR7        0.0417
     10  CE2       29.9480  -12.0930  -17.5300 C.ar    7  TYR7        0.0417
     11  CZ        30.1600  -11.3320  -18.6610 C.ar    7  TYR7        0.1957
     12  OH        30.9420  -10.1870  -18.6190 O.3     7  TYR7       -0.2866
     13  N         30.5270  -15.9840  -18.9250 N.am    8  PHE8       -0.1976
     14  CA        31.6520  -16.5960  -18.2210 C.3     8  PHE8        0.1639
     15  C         31.2590  -16.8070  -16.7630 C.2     8  PHE8        0.2290
     16  O         30.1640  -16.4040  -16.3390 O.2     8  PHE8       -0.2864
     17  CB        32.9090  -15.6990  -18.2640 C.3     8  PHE8        0.0560
     18  CG        33.3540  -15.3170  -19.6550 C.ar    8  PHE8       -0.0200
     19  CD1       33.8170  -16.2830  -20.5500 C.ar    8  PHE8       -0.0042
     20  CD2       33.3360  -13.9930  -20.0580 C.ar    8  PHE8       -0.0042
     21  CE1       34.2300  -15.9320  -21.8420 C.ar    8  PHE8       -0.0003
     22  CE2       33.7500  -13.6220  -21.3440 C.ar    8  PHE8       -0.0003
     23  CZ        34.2040  -14.5980  -22.2370 C.ar    8  PHE8       -0.0000
     24  N         31.5140  -15.2520  -14.0060 N.3    10  MET10      -0.1245
     25  CA        31.7080  -13.8980  -13.4770 C.3    10  MET10       0.1570
     26  C         30.3330  -13.2270  -13.3750 C.2    10  MET10       0.2261
     27  O         29.3770  -13.6130  -14.0730 O.2    10  MET10      -0.2867
     28  CB        32.5150  -12.9960  -14.4320 C.3    10  MET10       0.0387
     29  CG        33.9130  -13.4110  -14.8530 C.3    10  MET10       0.0595
     30  SD        34.6410  -12.0560  -15.8210 S.3    10  MET10      -0.1393
     31  CE        33.4630  -11.9210  -17.1640 C.3    10  MET10       0.0692
     32  N         30.0420   -9.8890  -14.0260 N.3    12  GLY12      -0.1210
     33  CA        30.2180   -9.1510  -15.2730 C.3    12  GLY12       0.1956
     34  C         28.9460   -8.5390  -15.8160 C.2    12  GLY12       0.2611
     35  O         28.1250   -7.9900  -15.0600 O.2    12  GLY12      -0.2717
     36  N         28.7700   -8.6680  -17.1250 N.am   13  ARG13      -0.1979
     37  CA        27.6200   -8.0990  -17.8100 C.3    13  ARG13       0.1597
     38  C         26.3730   -8.9640  -17.7430 C.2    13  ARG13       0.2287
     39  O         25.3410   -8.5700  -18.2720 O.2    13  ARG13      -0.2864
     40  CB        27.9580   -7.7530  -19.2590 C.3    13  ARG13       0.0334
     41  CG        29.0000   -6.6870  -19.3660 C.3    13  ARG13       0.0492
     42  CD        29.2510   -6.3170  -20.7940 C.3    13  ARG13       0.2205
     43  NE        30.0150   -5.0730  -20.8310 N.pl3  13  ARG13      -0.0865
     44  CZ        29.4780   -3.8590  -20.6890 C.cat  13  ARG13       0.5346
     45  NH1       28.1600   -3.7060  -20.5050 N.pl3  13  ARG13       0.1354
     46  NH2       30.2670   -2.7860  -20.7250 N.pl3  13  ARG13       0.1354
     47  N         36.5430  -20.0550  -19.7500 N.3    35  GLN35      -0.1245
     48  CA        37.1530  -19.0320  -20.6140 C.3    35  GLN35       0.1566
     49  C         38.0790  -19.6730  -21.6340 C.2    35  GLN35       0.2260
     50  O         38.5170  -19.0260  -22.5850 O.2    35  GLN35      -0.2867
     51  CB        37.8740  -17.9330  -19.8170 C.3    35  GLN35       0.0367
     52  CG        36.9640  -17.1810  -18.8330 C.3    35  GLN35       0.0905
     53  CD        37.4710  -15.7910  -18.4610 C.2    35  GLN35       0.2608
     54  OE1       38.0030  -15.0580  -19.3060 O.2    35  GLN35      -0.2717
     55  NE2       37.2620  -15.4010  -17.1990 N.am   35  GLN35      -0.0878
     56  N         26.9610    2.2840  -17.3110 N.3    95  ASP95      -0.1239
     57  CA        27.5530    1.3950  -18.3010 C.3    95  ASP95       0.1674
     58  C         28.6780    2.0360  -19.0940 C.2    95  ASP95       0.2266
     59  O         29.6620    1.3600  -19.3980 O.2    95  ASP95      -0.2867
     60  CB        26.4940    0.8700  -19.2690 C.3    95  ASP95       0.1410
     61  CG        26.9160   -0.4250  -19.9450 C.2    95  ASP95       0.3668
     62  OD1       27.2580   -1.3980  -19.2280 O.co2  95  ASP95      -0.2456
     63  OD2       26.8540   -0.4890  -21.1810 O.co2  95  ASP95      -0.2456
     64  N         31.7640    1.8000  -17.0450 N.3    98  MET98      -0.1245
     65  CA        32.2320    0.3930  -16.9600 C.3    98  MET98       0.1570
     66  C         32.7620   -0.1380  -18.3040 C.2    98  MET98       0.2261
     67  O         33.5490   -1.0800  -18.3390 O.2    98  MET98      -0.2867
     68  CB        31.1190   -0.5480  -16.4700 C.3    98  MET98       0.0387
     69  CG        30.5050   -0.1870  -15.1320 C.3    98  MET98       0.0595
     70  SD        31.6960   -0.0560  -13.7790 S.3    98  MET98      -0.1393
     71  CE        32.2220   -1.7600  -13.6020 C.3    98  MET98       0.0692
     72  N         38.8720   -4.3390  -20.4720 N.3   103  TRP103     -0.1227
     73  CA        38.6720   -5.7240  -20.0190 C.3   103  TRP103      0.1737
     74  C         39.3530   -6.6470  -21.0070 C.2   103  TRP103      0.2595
     75  O         39.3640   -6.3660  -22.2060 O.2   103  TRP103     -0.2718
     76  CB        37.1800   -6.0990  -19.9350 C.3   103  TRP103      0.0564
     77  CG        36.3580   -5.1750  -19.0880 C.ar  103  TRP103      0.0003
     78  CD1       35.4320   -4.2740  -19.5230 C.ar  103  TRP103      0.0946
     79  CD2       36.3970   -5.0530  -17.6630 C.ar  103  TRP103      0.0152
     80  NE1       34.8870   -3.6010  -18.4580 N.ar  103  TRP103     -0.2442
     81  CE2       35.4630   -4.0590  -17.3040 C.ar  103  TRP103      0.0810
     82  CE3       37.1300   -5.6910  -16.6520 C.ar  103  TRP103      0.0012
     83  CZ2       35.2480   -3.6790  -15.9790 C.ar  103  TRP103      0.0191
     84  CZ3       36.9110   -5.3120  -15.3330 C.ar  103  TRP103      0.0001
     85  CH2       35.9790   -4.3200  -15.0090 C.ar  103  TRP103      0.0015
     86  N         39.9380   -7.7270  -20.5080 N.am  104  ALA104     -0.1980
     87  CA        40.6250   -8.7020  -21.3630 C.3   104  ALA104      0.1597
     88  C         40.5870   -8.3440  -22.8610 C.2   104  ALA104      0.2287
     89  O         39.5310   -8.4100  -23.5180 O.2   104  ALA104     -0.2864
     90  CB        40.0640  -10.1120  -21.1210 C.3   104  ALA104      0.0319
     91  N         21.5750   -1.9550  -10.9430 N.3   142  TYR142     -0.1241
     92  CA        22.7770   -1.7720  -11.7530 C.3   142  TYR142      0.1605
     93  C         23.8350   -0.9610  -11.0030 C.2   142  TYR142      0.2264
     94  O         25.0440   -1.1870  -11.1640 O.2   142  TYR142     -0.2867
     95  CB        22.4310   -1.2090  -13.1450 C.3   142  TYR142      0.0534
     96  CG        23.4550   -1.5510  -14.2090 C.ar  142  TYR142     -0.0201
     97  CD1       23.7870   -2.8820  -14.4700 C.ar  142  TYR142     -0.0009
     98  CD2       24.0690   -0.5640  -14.9730 C.ar  142  TYR142     -0.0009
     99  CE1       24.7170   -3.2230  -15.4430 C.ar  142  TYR142      0.0417
    100  CE2       24.9960   -0.8950  -15.9650 C.ar  142  TYR142      0.0417
    101  CZ        25.3190   -2.2250  -16.1850 C.ar  142  TYR142      0.1957
    102  OH        26.2250   -2.5890  -17.1570 O.3   142  TYR142     -0.2866
    103  N         25.4730   -3.4390   -8.5620 N.3   145  ILE145     -0.1231
    104  CA        26.3170   -4.3220   -9.3980 C.3   145  ILE145      0.1692
    105  C         27.6250   -3.6510   -9.8590 C.2   145  ILE145      0.2592
    106  O         28.7300   -4.1930   -9.6860 O.2   145  ILE145     -0.2718
    107  CB        25.5070   -4.8200  -10.6260 C.3   145  ILE145      0.0266
    108  CG1       24.5540   -5.9350  -10.1860 C.3   145  ILE145      0.0019
    109  CG2       26.4350   -5.3320  -11.7060 C.3   145  ILE145      0.0020
    110  CD1       23.4580   -6.2920  -11.1780 C.3   145  ILE145      0.0001
    111  N         27.4900   -2.4690  -10.4500 N.am  146  CYS146     -0.1970
    112  CA        28.6390   -1.7250  -10.9190 C.3   146  CYS146      0.1712
    113  C         29.5630   -1.3000   -9.7700 C.2   146  CYS146      0.2296
    114  O         30.7860   -1.4540   -9.8590 O.2   146  CYS146     -0.2864
    115  CB        28.1820   -0.5020  -11.7370 C.3   146  CYS146      0.0983
    116  SG        27.4350   -0.9340  -13.3220 S.3   146  CYS146     -0.0798
    117  N         31.8770   -4.1070   -8.3590 N.3   149  THR149     -0.1218
    118  CA        33.0760   -4.3110   -9.1600 C.3   149  THR149      0.1862
    119  C         34.1060   -3.1950   -8.9890 C.2   149  THR149      0.2287
    120  O         35.3010   -3.4670   -8.8650 O.2   149  THR149     -0.2866
    121  CB        32.7050   -4.5190  -10.6230 C.3   149  THR149      0.1770
    122  OG1       32.0220   -5.7720  -10.7250 O.3   149  THR149     -0.2211
    123  CG2       33.9370   -4.5540  -11.5100 C.3   149  THR149      0.0375
    124  N         35.2350  -10.4490  -10.4130 N.3   189  LEU189     -0.1245
    125  CA        34.5180   -9.6880  -11.4290 C.3   189  LEU189      0.1561
    126  C         33.1000  -10.1780  -11.6590 C.2   189  LEU189      0.2260
    127  O         32.7300  -11.2870  -11.2610 O.2   189  LEU189     -0.2867
    128  CB        35.2790   -9.7240  -12.7650 C.3   189  LEU189      0.0270
    129  CG        36.7030   -9.1660  -12.7470 C.3   189  LEU189      0.0019
    130  CD1       37.2770   -9.1010  -14.1600 C.3   189  LEU189      0.0001
    131  CD2       36.7170   -7.7870  -12.0970 C.3   189  LEU189      0.0001
@<TRIPOS>BOND
     1    89    88    2
     2    88    87    1
     3    50    49    2
     4    23    21   ar
     5    23    22   ar
     6    75    74    2
     7    21    19   ar
     8    49    48    1
     9    87    90    1
    10    87    86    1
    11    22    20   ar
    12    63    61   ar
    13    74    86   am
    14    74    73    1
    15    43    42    1
    16    43    44    2
    17    42    41    1
    18    46    44    1
    19    44    45    1
    20    48    51    1
    21    48    47    1
    22    19    18   ar
    23    72    73    1
    24     1     2    1
    25    20    18   ar
    26    73    76    1
    27    61    60    1
    28    61    62   ar
    29     7     9   ar
    30     7     6   ar
    31    76    77    1
    32     2     3    1
    33     2     5    1
    34     9    11   ar
    35    51    52    1
    36    18    17    1
    37    78    77   ar
    38    78    80   ar
    39    59    58    2
    40    41    40    1
    41    54    53    2
    42     3     4    2
    43     3    13   am
    44    60    57    1
    45    40    37    1
    46    58    57    1
    47    77    79   ar
    48     5     6    1
    49    13    14    1
    50    52    53    1
    51     6     8   ar
    52    11    12    1
    53    11    10   ar
    54    53    55   am
    55    80    81   ar
    56    67    66    2
    57    66    65    1
    58    57    56    1
    59    39    38    2
    60    17    14    1
    61    14    15    1
    62    37    38    1
    63    37    36    1
    64    79    81   ar
    65    79    82   ar
    66     8    10   ar
    67    81    83   ar
    68    31    30    1
    69   102   101    1
    70    36    34   am
    71    64    65    1
    72    65    68    1
    73    15    16    2
    74    82    84   ar
    75    68    69    1
    76   101   100   ar
    77   101    99   ar
    78    83    85   ar
    79   100    98   ar
    80    30    29    1
    81    34    33    1
    82    34    35    2
    83    99    97   ar
    84    84    85   ar
    85    33    32    1
    86    69    70    1
    87    98    96   ar
    88    29    28    1
    89    97    96   ar
    90    28    25    1
    91    96    95    1
    92   130   129    1
    93    27    26    2
    94    24    25    1
    95    70    71    1
    96    25    26    1
    97   116   115    1
    98    95    92    1
    99   128   129    1
   100   128   125    1
   101   129   131    1
   102    92    93    1
   103    92    91    1
   104   115   112    1
   105   109   107    1
   106   126   125    1
   107   126   127    2
   108   123   121    1
   109   125   124    1
   110   110   108    1
   111    94    93    2
   112   112   111    1
   113   112   113    1
   114   122   121    1
   115   107   108    1
   116   107   104    1
   117   121   118    1
   118   111   105   am
   119   114   113    2
   120   105   106    2
   121   105   104    1
   122   104   103    1
   123   118   119    1
   124   118   117    1
   125   119   120    2
