@<TRIPOS>MOLECULE
tmp/2vczC00.pdb
 112 110 0 0 0
SMALL
GASTEIGER

@<TRIPOS>ATOM
      1  N         88.7760   44.6840  -42.8500 N.3     7  TYR7       -0.1227
      2  CA        89.8240   45.6800  -42.5680 C.3     7  TYR7        0.1736
      3  C         91.0010   44.9550  -41.9390 C.2     7  TYR7        0.2595
      4  O         90.9570   43.7320  -41.7810 O.2     7  TYR7       -0.2718
      5  CB        89.2870   46.7600  -41.6020 C.3     7  TYR7        0.0548
      6  CG        90.1090   48.0300  -41.5460 C.ar    7  TYR7       -0.0200
      7  CD1       90.1950   48.8630  -42.6580 C.ar    7  TYR7       -0.0009
      8  CD2       90.7760   48.4170  -40.3800 C.ar    7  TYR7       -0.0009
      9  CE1       90.9480   50.0280  -42.6340 C.ar    7  TYR7        0.0417
     10  CE2       91.5370   49.6030  -40.3480 C.ar    7  TYR7        0.0417
     11  CZ        91.6000   50.3950  -41.4800 C.ar    7  TYR7        0.1957
     12  OH        92.3080   51.5650  -41.4860 O.3     7  TYR7       -0.2866
     13  N         92.0640   45.6870  -41.6190 N.am    8  PHE8       -0.1976
     14  CA        93.1930   45.1090  -40.8820 C.3     8  PHE8        0.1639
     15  C         92.7840   44.9250  -39.4220 C.2     8  PHE8        0.2290
     16  O         91.7090   45.3770  -39.0050 O.2     8  PHE8       -0.2864
     17  CB        94.4100   46.0490  -40.9120 C.3     8  PHE8        0.0560
     18  CG        94.8950   46.3890  -42.2920 C.ar    8  PHE8       -0.0200
     19  CD1       95.4590   45.4160  -43.1040 C.ar    8  PHE8       -0.0042
     20  CD2       94.8170   47.6970  -42.7650 C.ar    8  PHE8       -0.0042
     21  CE1       95.9160   45.7280  -44.3850 C.ar    8  PHE8       -0.0003
     22  CE2       95.2700   48.0240  -44.0450 C.ar    8  PHE8       -0.0003
     23  CZ        95.8230   47.0330  -44.8590 C.ar    8  PHE8       -0.0000
     24  N         90.2920   53.2160  -39.9300 N.3    13  ARG13      -0.1245
     25  CA        89.1260   53.7640  -40.5900 C.3    13  ARG13       0.1563
     26  C         87.8670   52.8920  -40.5340 C.2    13  ARG13       0.2260
     27  O         86.8090   53.3110  -40.9690 O.2    13  ARG13      -0.2867
     28  CB        89.4940   54.2020  -42.0040 C.3    13  ARG13       0.0307
     29  CG        90.6120   55.2610  -41.9610 C.3    13  ARG13       0.0489
     30  CD        90.7630   56.0080  -43.2400 C.3    13  ARG13       0.2205
     31  NE        89.5560   56.7800  -43.5280 N.pl3  13  ARG13      -0.0865
     32  CZ        89.3270   58.0280  -43.1200 C.cat  13  ARG13       0.5346
     33  NH1       88.1950   58.6190  -43.4530 N.pl3  13  ARG13       0.1354
     34  NH2       90.2210   58.6860  -42.3850 N.pl3  13  ARG13       0.1354
     35  N         97.4730   41.0650  -47.3560 N.3    38  TRP38      -0.1241
     36  CA        96.9410   42.2540  -48.0550 C.3    38  TRP38       0.1605
     37  C         97.2670   42.3970  -49.5600 C.2    38  TRP38       0.2264
     38  O         96.3480   42.6540  -50.3530 O.2    38  TRP38      -0.2867
     39  CB        97.2470   43.5390  -47.2600 C.3    38  TRP38       0.0550
     40  CG        96.8520   44.8500  -47.9200 C.ar   38  TRP38       0.0003
     41  CD1       97.6790   45.8980  -48.2040 C.ar   38  TRP38       0.0946
     42  CD2       95.5460   45.2360  -48.3810 C.ar   38  TRP38       0.0152
     43  NE1       96.9720   46.9180  -48.7950 N.ar   38  TRP38      -0.2442
     44  CE2       95.6630   46.5370  -48.9230 C.ar   38  TRP38       0.0810
     45  CE3       94.2930   44.6120  -48.3900 C.ar   38  TRP38       0.0012
     46  CZ2       94.5720   47.2270  -49.4690 C.ar   38  TRP38       0.0191
     47  CZ3       93.2070   45.2980  -48.9310 C.ar   38  TRP38       0.0001
     48  CH2       93.3580   46.5950  -49.4630 C.ar   38  TRP38       0.0015
     49  N         94.1300   43.3720  -52.0290 N.3    42  LYS42      -0.1245
     50  CA        94.0460   44.7100  -52.6290 C.3    42  LYS42       0.1561
     51  C         93.4950   44.7290  -54.0610 C.2    42  LYS42       0.2260
     52  O         92.6100   45.5230  -54.3750 O.2    42  LYS42      -0.2867
     53  CB        95.4210   45.3950  -52.5890 C.3    42  LYS42       0.0271
     54  CG        95.4350   46.8350  -53.0900 C.3    42  LYS42       0.0035
     55  CD        96.8480   47.3830  -53.1610 C.3    42  LYS42       0.0206
     56  CE        96.8620   48.8330  -53.6250 C.3    42  LYS42       0.1093
     57  NZ        96.2230   49.7740  -52.6480 N.3    42  LYS42      -0.1314
     58  N         91.0730   49.7420  -51.7890 N.3    49  LYS49      -0.1231
     59  CA        91.1530   50.2770  -50.4260 C.3    49  LYS49       0.1693
     60  C         90.2230   49.5580  -49.4570 C.2    49  LYS49       0.2592
     61  O         89.2290   48.9490  -49.8610 O.2    49  LYS49      -0.2718
     62  CB        90.8620   51.7850  -50.4180 C.3    49  LYS49       0.0285
     63  CG        91.7940   52.6160  -51.2970 C.3    49  LYS49       0.0035
     64  CD        93.2430   52.5350  -50.8300 C.3    49  LYS49       0.0206
     65  CE        94.2150   53.0420  -51.8820 C.3    49  LYS49       0.1093
     66  NZ        93.9420   54.4310  -52.3140 N.3    49  LYS49      -0.1314
     67  N         90.5930   49.5820  -48.1830 N.am   50  ILE50      -0.1966
     68  CA        89.7360   49.0550  -47.1240 C.3    50  ILE50       0.1712
     69  C         89.5420   50.1930  -46.1230 C.2    50  ILE50       0.2458
     70  O         90.3630   51.1240  -46.0780 O.2    50  ILE50      -0.2730
     71  CB        90.2460   47.7340  -46.4580 C.3    50  ILE50       0.0289
     72  CG1       91.7190   47.8450  -46.0410 C.3    50  ILE50       0.0022
     73  CG2       89.9810   46.5430  -47.3650 C.3    50  ILE50       0.0023
     74  CD1       92.2330   46.6260  -45.2870 C.3    50  ILE50       0.0001
     75  N         88.4630   50.1420  -45.3260 N.am   51  PRO51      -0.2727
     76  CA        87.4710   49.0680  -45.2660 C.3    51  PRO51       0.1402
     77  C         86.4600   48.9770  -46.4040 C.2    51  PRO51       0.2269
     78  O         86.2390   49.9350  -47.1580 O.2    51  PRO51      -0.2865
     79  CB        86.7050   49.3820  -43.9840 C.3    51  PRO51       0.0296
     80  CG        86.7730   50.8710  -43.8780 C.3    51  PRO51       0.0237
     81  CD        88.1450   51.2350  -44.3810 C.3    51  PRO51       0.0939
     82  N         84.5440   53.1830  -48.6640 N.3    62  GLN62      -0.1231
     83  CA        84.6000   54.5330  -48.0760 C.3    62  GLN62       0.1698
     84  C         83.9090   54.5820  -46.7180 C.2    62  GLN62       0.2593
     85  O         82.6880   54.6840  -46.6410 O.2    62  GLN62      -0.2718
     86  CB        84.0430   55.6000  -49.0400 C.3    62  GLN62       0.0381
     87  CG        85.0000   55.9370  -50.1740 C.3    62  GLN62       0.0905
     88  CD        86.2770   56.6070  -49.6650 C.2    62  GLN62       0.2608
     89  OE1       86.3350   57.0730  -48.5230 O.2    62  GLN62      -0.2717
     90  NE2       87.2900   56.6530  -50.5000 N.am   62  GLN62      -0.0878
     91  N         84.7070   54.5290  -45.6500 N.am   63  SER63      -0.1938
     92  CA        84.1810   54.4600  -44.2790 C.3    63  SER63       0.2055
     93  C         83.0990   55.4680  -43.9090 C.2    63  SER63       0.2642
     94  O         82.1140   55.1080  -43.2530 O.2    63  SER63      -0.2714
     95  CB        85.3150   54.5280  -43.2370 C.3    63  SER63       0.2130
     96  OG        85.9990   55.7750  -43.2370 O.3    63  SER63      -0.2179
     97  N         83.2940   56.7270  -44.2880 N.am   64  LEU64      -0.1977
     98  CA        82.3510   57.7740  -43.9100 C.3    64  LEU64       0.1596
     99  C         81.0880   57.7310  -44.7480 C.2    64  LEU64       0.2287
    100  O         80.0370   58.1230  -44.2680 O.2    64  LEU64      -0.2864
    101  CB        83.0120   59.1630  -43.9550 C.3    64  LEU64       0.0297
    102  CG        84.2860   59.2920  -43.0970 C.3    64  LEU64       0.0022
    103  CD1       84.8700   60.6870  -43.2230 C.3    64  LEU64       0.0001
    104  CD2       84.0420   58.9230  -41.6110 C.3    64  LEU64       0.0001
    105  N         88.3690   64.3390  -39.7440 N.3    95  ASP95      -0.1239
    106  CA        88.9560   63.4820  -40.7740 C.3    95  ASP95       0.1674
    107  C         90.1100   64.1260  -41.5270 C.2    95  ASP95       0.2266
    108  O         91.1040   63.4580  -41.7550 O.2    95  ASP95      -0.2867
    109  CB        87.9150   63.0270  -41.7980 C.3    95  ASP95       0.1410
    110  CG        88.3230   61.7420  -42.5020 C.2    95  ASP95       0.3668
    111  OD1       88.5690   60.7510  -41.7950 O.co2  95  ASP95      -0.2456
    112  OD2       88.3680   61.6990  -43.7470 O.co2  95  ASP95      -0.2456
@<TRIPOS>BOND
     1    52    51    2
     2    51    50    1
     3    56    55    1
     4    56    57    1
     5    55    54    1
     6    54    53    1
     7    50    53    1
     8    50    49    1
     9    66    65    1
    10    65    64    1
    11    58    59    1
    12    63    64    1
    13    63    62    1
    14    90    88   am
    15    59    62    1
    16    59    60    1
    17    38    37    2
    18    87    88    1
    19    87    86    1
    20    61    60    2
    21    88    89    2
    22    37    36    1
    23    46    48   ar
    24    46    44   ar
    25    48    47   ar
    26    60    67   am
    27    86    83    1
    28    47    45   ar
    29    44    43   ar
    30    44    42   ar
    31    43    41   ar
    32    82    83    1
    33    45    42   ar
    34    42    40   ar
    35    41    40   ar
    36    67    68    1
    37    83    84    1
    38    36    35    1
    39    36    39    1
    40    40    39    1
    41    73    71    1
    42    78    77    2
    43    68    71    1
    44    68    69    1
    45    84    85    2
    46    84    91   am
    47    71    72    1
    48    77    76    1
    49    69    70    2
    50    69    75   am
    51    72    74    1
    52    91    92    1
    53    75    76    1
    54    75    81    1
    55    76    79    1
    56    23    21   ar
    57    23    22   ar
    58    99   100    2
    59    99    98    1
    60    21    19   ar
    61    81    80    1
    62    97    98    1
    63    97    93   am
    64    92    93    1
    65    92    95    1
    66    22    20   ar
    67    79    80    1
    68   101    98    1
    69   101   102    1
    70    93    94    2
    71   112   110   ar
    72    31    30    1
    73    31    32    2
    74    33    32    1
    75    30    29    1
    76    96    95    1
    77   103   102    1
    78    32    34    1
    79    19    18   ar
    80   102   104    1
    81     1     2    1
    82    20    18   ar
    83     7     9   ar
    84     7     6   ar
    85     9    11   ar
    86     2     3    1
    87     2     5    1
    88   110   109    1
    89   110   111   ar
    90    18    17    1
    91    28    29    1
    92    28    25    1
    93     3     4    2
    94     3    13   am
    95   109   106    1
    96   108   107    2
    97    13    14    1
    98     5     6    1
    99     6     8   ar
   100   107   106    1
   101    12    11    1
   102    11    10   ar
   103    27    26    2
   104    17    14    1
   105    14    15    1
   106   106   105    1
   107    25    26    1
   108    25    24    1
   109     8    10   ar
   110    15    16    2
