@<TRIPOS>MOLECULE
tmp/2vczB00.pdb
 112 106 0 0 0
SMALL
GASTEIGER

@<TRIPOS>ATOM
      1  N         80.0930   75.7150   -4.6640 N.3     7  TYR7       -0.1241
      2  CA        79.3720   74.5380   -4.2040 C.3     7  TYR7        0.1605
      3  C         77.9010   74.7460   -4.4990 C.2     7  TYR7        0.2264
      4  O         77.5180   75.7610   -5.0750 O.2     7  TYR7       -0.2867
      5  CB        79.6070   74.3450   -2.6950 C.3     7  TYR7        0.0534
      6  CG        79.1570   73.0040   -2.1380 C.ar    7  TYR7       -0.0201
      7  CD1       79.6570   71.7970   -2.6630 C.ar    7  TYR7       -0.0009
      8  CD2       78.2780   72.9380   -1.0550 C.ar    7  TYR7       -0.0009
      9  CE1       79.2520   70.5660   -2.1360 C.ar    7  TYR7        0.0417
     10  CE2       77.8780   71.7020   -0.5080 C.ar    7  TYR7        0.0417
     11  CZ        78.3760   70.5300   -1.0560 C.ar    7  TYR7        0.1957
     12  OH        77.9810   69.3300   -0.5210 O.3     7  TYR7       -0.2866
     13  N         73.8830   74.8350   -0.2490 N.3    10  MET10      -0.1245
     14  CA        73.6650   74.0020    0.9270 C.3    10  MET10       0.1570
     15  C         74.9150   74.0200    1.7760 C.2    10  MET10       0.2261
     16  O         75.9690   74.4730    1.3320 O.2    10  MET10      -0.2867
     17  CB        73.3090   72.5560    0.5440 C.3    10  MET10       0.0387
     18  CG        74.3410   71.8180   -0.2780 C.3    10  MET10       0.0595
     19  SD        73.8320   70.1160   -0.6010 S.3    10  MET10      -0.1393
     20  CE        72.3110   70.3570   -1.4780 C.3    10  MET10       0.0692
     21  N         76.2510   71.1180    3.2840 N.3    12  GLY12      -0.1210
     22  CA        76.9300   69.9480    2.7130 C.3    12  GLY12       0.1956
     23  C         78.4110   69.8630    3.0430 C.2    12  GLY12       0.2611
     24  O         78.8300   70.0970    4.2030 O.2    12  GLY12      -0.2717
     25  N         79.2040   69.5290    2.0280 N.am   13  ARG13      -0.1979
     26  CA        80.6420   69.3350    2.2190 C.3    13  ARG13       0.1597
     27  C         81.4360   70.6450    2.2310 C.2    13  ARG13       0.2287
     28  O         82.6040   70.6540    2.5980 O.2    13  ARG13      -0.2864
     29  CB        81.2370   68.4010    1.1580 C.3    13  ARG13       0.0334
     30  CG        80.5840   67.0380    1.0570 C.3    13  ARG13       0.0492
     31  CD        81.3250   66.1780    0.0420 C.3    13  ARG13       0.2205
     32  NE        80.4420   65.2450   -0.6530 N.pl3  13  ARG13      -0.0865
     33  CZ        80.3480   63.9330   -0.4540 C.cat  13  ARG13       0.5346
     34  NH1       81.1080   63.3010    0.4350 N.pl3  13  ARG13       0.1354
     35  NH2       79.4850   63.2410   -1.1850 N.pl3  13  ARG13       0.1354
     36  N         83.8070   61.8270    8.4750 N.3    95  ASP95      -0.1239
     37  CA        83.6650   61.8510    7.0090 C.3    95  ASP95       0.1674
     38  C         83.2890   60.4960    6.4380 C.2    95  ASP95       0.2266
     39  O         82.4390   60.4220    5.5320 O.2    95  ASP95      -0.2867
     40  CB        84.9410   62.3340    6.3150 C.3    95  ASP95       0.1410
     41  CG        84.6870   62.7420    4.8470 C.2    95  ASP95       0.3668
     42  OD1       83.7700   63.5540    4.6110 O.co2  95  ASP95      -0.2456
     43  OD2       85.4130   62.2940    3.9390 O.co2  95  ASP95      -0.2456
     44  N         79.5670   60.0400    7.0310 N.3    98  MET98      -0.1230
     45  CA        78.7070   60.9090    6.2180 C.3    98  MET98       0.1702
     46  C         78.7540   60.5200    4.7310 C.2    98  MET98       0.2593
     47  O         77.7480   60.6260    4.0250 O.2    98  MET98      -0.2718
     48  CB        79.0820   62.3850    6.3780 C.3    98  MET98       0.0401
     49  CG        79.0170   62.9230    7.8050 C.3    98  MET98       0.0596
     50  SD        77.3920   62.7460    8.5830 S.3    98  MET98      -0.1393
     51  CE        76.4100   63.9070    7.6320 C.3    98  MET98       0.0692
     52  N         79.9060   60.0520    4.2670 N.am   99  SER99      -0.1952
     53  CA        80.0410   59.6800    2.8530 C.3    99  SER99       0.1924
     54  C         79.3400   58.3550    2.5030 C.2    99  SER99       0.2314
     55  O         79.1630   58.0370    1.3170 O.2    99  SER99      -0.2863
     56  CB        81.5120   59.7060    2.4050 C.3    99  SER99       0.2116
     57  OG        82.2720   58.7820    3.1450 O.3    99  SER99      -0.2180
     58  N         73.6740   60.3250   -1.1430 N.3   103  TRP103     -0.1241
     59  CA        73.1150   61.6620   -1.3440 C.3   103  TRP103      0.1605
     60  C         72.6010   61.8820   -2.7730 C.2   103  TRP103      0.2264
     61  O         71.7140   62.6930   -3.0000 O.2   103  TRP103     -0.2867
     62  CB        74.1640   62.7460   -1.0260 C.3   103  TRP103      0.0550
     63  CG        74.7650   62.6560    0.3480 C.ar  103  TRP103      0.0003
     64  CD1       75.9790   62.1410    0.6820 C.ar  103  TRP103      0.0946
     65  CD2       74.1540   63.0720    1.5720 C.ar  103  TRP103      0.0152
     66  NE1       76.1740   62.2180    2.0470 N.ar  103  TRP103     -0.2442
     67  CE2       75.0650   62.7920    2.6120 C.ar  103  TRP103      0.0810
     68  CE3       72.9260   63.6750    1.8890 C.ar  103  TRP103      0.0012
     69  CZ2       74.7810   63.0770    3.9490 C.ar  103  TRP103      0.0191
     70  CZ3       72.6480   63.9590    3.2240 C.ar  103  TRP103      0.0001
     71  CH2       73.5720   63.6600    4.2310 C.ar  103  TRP103      0.0015
     72  N         83.7590   70.3100   12.5410 N.3   151  TYR151     -0.1241
     73  CA        83.2550   69.2360   11.6970 C.3   151  TYR151      0.1605
     74  C         82.2180   68.3990   12.4420 C.2   151  TYR151      0.2264
     75  O         81.2040   68.0180   11.8800 O.2   151  TYR151     -0.2867
     76  CB        84.4070   68.3910   11.1260 C.3   151  TYR151      0.0534
     77  CG        84.0400   67.7100    9.8150 C.ar  151  TYR151     -0.0201
     78  CD1       83.5820   68.4570    8.7340 C.ar  151  TYR151     -0.0009
     79  CD2       84.1780   66.3400    9.6430 C.ar  151  TYR151     -0.0009
     80  CE1       83.2290   67.8470    7.5380 C.ar  151  TYR151      0.0417
     81  CE2       83.8400   65.7180    8.4320 C.ar  151  TYR151      0.0417
     82  CZ        83.3730   66.4770    7.3880 C.ar  151  TYR151      0.1957
     83  OH        83.0300   65.8760    6.1920 O.3   151  TYR151     -0.2866
     84  N         78.9870   70.4660   12.4440 N.3   154  ILE154     -0.1231
     85  CA        78.4460   70.4420   11.0880 C.3   154  ILE154      0.1692
     86  C         77.7940   69.1040   10.7540 C.2   154  ILE154      0.2592
     87  O         76.6400   69.0700   10.2940 O.2   154  ILE154     -0.2718
     88  CB        79.5510   70.8110   10.0580 C.3   154  ILE154      0.0266
     89  CG1       79.9880   72.2700   10.2850 C.3   154  ILE154      0.0019
     90  CG2       79.0420   70.6160    8.6170 C.3   154  ILE154      0.0020
     91  CD1       81.2140   72.6730    9.4960 C.3   154  ILE154      0.0001
     92  N         78.5200   68.0050   10.9670 N.am  155  CYS155     -0.1970
     93  CA        77.9810   66.6810   10.6650 C.3   155  CYS155      0.1712
     94  C         76.7550   66.3450   11.5190 C.2   155  CYS155      0.2296
     95  O         75.7420   65.8620   10.9970 O.2   155  CYS155     -0.2864
     96  CB        79.0550   65.5940   10.8210 C.3   155  CYS155      0.0983
     97  SG        80.3340   65.6520    9.5370 S.3   155  CYS155     -0.0798
     98  N         73.4110   68.0430   10.4390 N.3   158  THR158     -0.1218
     99  CA        72.7420   67.3330    9.3530 C.3   158  THR158      0.1862
    100  C         72.1100   66.0240    9.8360 C.2   158  THR158      0.2287
    101  O         70.9690   65.7100    9.4740 O.2   158  THR158     -0.2866
    102  CB        73.7000   67.1410    8.1600 C.3   158  THR158      0.1770
    103  OG1       73.8930   68.4220    7.5460 O.3   158  THR158     -0.2211
    104  CG2       73.1280   66.1760    7.1090 C.3   158  THR158      0.0375
    105  N         69.9340   71.0780    4.1060 N.3   198  LEU198     -0.1245
    106  CA        71.1820   70.3380    4.1960 C.3   198  LEU198      0.1561
    107  C         72.3960   71.2210    3.9490 C.2   198  LEU198      0.2260
    108  O         72.2700   72.4230    3.6690 O.2   198  LEU198     -0.2867
    109  CB        71.1590   69.1900    3.1860 C.3   198  LEU198      0.0270
    110  CG        69.9950   68.2050    3.3750 C.3   198  LEU198      0.0019
    111  CD1       69.8760   67.2600    2.1820 C.3   198  LEU198      0.0001
    112  CD2       70.1400   67.4310    4.6850 C.3   198  LEU198      0.0001
@<TRIPOS>BOND
     1     4     3    2
     2     1     2    1
     3     3     2    1
     4     2     5    1
     5    61    60    2
     6    60    59    1
     7     5     6    1
     8     7     6   ar
     9     7     9   ar
    10     6     8   ar
    11     9    11   ar
    12    20    19    1
    13    59    58    1
    14    59    62    1
    15    35    33    1
    16    11    12    1
    17    11    10   ar
    18     8    10   ar
    19    62    63    1
    20    32    33    2
    21    32    31    1
    22    19    18    1
    23    33    34    1
    24    18    17    1
    25    13    14    1
    26    31    30    1
    27    63    64   ar
    28    63    65   ar
    29    17    14    1
    30    64    66   ar
    31    14    15    1
    32    30    29    1
    33    29    26    1
    34    55    54    2
    35    16    15    2
    36    65    68   ar
    37    65    67   ar
    38    68    70   ar
    39    25    26    1
    40    25    23   am
    41    66    67   ar
    42   111   110    1
    43    26    27    1
    44    27    28    2
    45    56    53    1
    46    56    57    1
    47    54    53    1
    48    67    69   ar
    49    22    23    1
    50    22    21    1
    51    53    52    1
    52    23    24    2
    53   109   110    1
    54   109   106    1
    55    70    71   ar
    56   110   112    1
    57   108   107    2
    58    43    41   ar
    59   107   106    1
    60    69    71   ar
    61    47    46    2
    62   105   106    1
    63    52    46   am
    64    42    41   ar
    65    46    45    1
    66    41    40    1
    67    39    38    2
    68    83    82    1
    69    45    48    1
    70    45    44    1
    71    40    37    1
    72    48    49    1
    73    38    37    1
    74    37    36    1
    75   104   102    1
    76    82    80   ar
    77    82    81   ar
    78    80    78   ar
    79   103   102    1
    80    51    50    1
    81    49    50    1
    82   102    99    1
    83    81    79   ar
    84    90    88    1
    85    78    77   ar
    86    99   100    1
    87    99    98    1
    88   101   100    2
    89    91    89    1
    90    97    96    1
    91    79    77   ar
    92    77    76    1
    93    88    89    1
    94    88    85    1
    95    87    86    2
    96    93    96    1
    97    93    92    1
    98    93    94    1
    99    86    92   am
   100    86    85    1
   101    95    94    2
   102    85    84    1
   103    76    73    1
   104    73    74    1
   105    73    72    1
   106    75    74    2
