@<TRIPOS>MOLECULE
tmp/2vd0B00.pdb
 138 132 0 0 0
SMALL
GASTEIGER

@<TRIPOS>ATOM
      1  N        138.0700   18.6700    4.4490 N.3     7  TYR7       -0.1227
      2  CA       136.8690   17.9560    4.0200 C.3     7  TYR7        0.1736
      3  C        137.0630   16.4730    4.3200 C.2     7  TYR7        0.2595
      4  O        138.0770   16.0890    4.9050 O.2     7  TYR7       -0.2718
      5  CB       136.6200   18.2110    2.5180 C.3     7  TYR7        0.0548
      6  CG       135.2820   17.6840    1.9650 C.ar    7  TYR7       -0.0200
      7  CD1      134.0580   18.1560    2.4640 C.ar    7  TYR7       -0.0009
      8  CD2      135.2540   16.7420    0.9140 C.ar    7  TYR7       -0.0009
      9  CE1      132.8320   17.6920    1.9440 C.ar    7  TYR7        0.0417
     10  CE2      134.0500   16.2760    0.3860 C.ar    7  TYR7        0.0417
     11  CZ       132.8460   16.7600    0.9000 C.ar    7  TYR7        0.1957
     12  OH       131.6720   16.2940    0.3790 O.3     7  TYR7       -0.2866
     13  N        136.1010   15.6390    3.9330 N.am    8  PHE8       -0.1976
     14  CA       136.2560   14.2040    4.0810 C.3     8  PHE8        0.1639
     15  C        137.2380   13.7130    3.0040 C.2     8  PHE8        0.2290
     16  O        137.6460   14.4930    2.1330 O.2     8  PHE8       -0.2864
     17  CB       134.9220   13.4890    3.9010 C.3     8  PHE8        0.0560
     18  CG       133.9020   13.8050    4.9580 C.ar    8  PHE8       -0.0200
     19  CD1      134.1060   13.4150    6.2840 C.ar    8  PHE8       -0.0042
     20  CD2      132.7040   14.4250    4.6180 C.ar    8  PHE8       -0.0042
     21  CE1      133.1590   13.6920    7.2670 C.ar    8  PHE8       -0.0003
     22  CE2      131.7340   14.6920    5.5940 C.ar    8  PHE8       -0.0003
     23  CZ       131.9670   14.3350    6.9200 C.ar    8  PHE8       -0.0000
     24  N        137.1000   12.4690    0.1440 N.3    10  MET10      -0.1245
     25  CA       136.1410   12.2750   -0.9480 C.3    10  MET10       0.1570
     26  C        136.2540   13.4320   -1.8760 C.2    10  MET10       0.2261
     27  O        136.6850   14.5000   -1.4640 O.2    10  MET10      -0.2867
     28  CB       134.6870   12.2930   -0.4290 C.3    10  MET10       0.0387
     29  CG       134.1970   11.0330    0.2490 C.3    10  MET10       0.0595
     30  SD       132.4190   11.1520    0.5720 S.3    10  MET10      -0.1393
     31  CE       132.4310   12.1370    2.0520 C.3    10  MET10       0.0692
     32  N        133.4390   14.7110   -3.4630 N.3    12  GLY12      -0.1210
     33  CA       132.2590   15.4110   -2.9630 C.3    12  GLY12       0.1956
     34  C        132.2150   16.8900   -3.2710 C.2    12  GLY12       0.2611
     35  O        132.4640   17.3250   -4.4210 O.2    12  GLY12      -0.2717
     36  N        131.9390   17.6620   -2.2280 N.am   13  ARG13      -0.1979
     37  CA       131.7960   19.1090   -2.3370 C.3    13  ARG13       0.1597
     38  C        133.1120   19.8890   -2.2990 C.2    13  ARG13       0.2287
     39  O        133.1270   21.0820   -2.5710 O.2    13  ARG13      -0.2864
     40  CB       130.7680   19.6290   -1.3190 C.3    13  ARG13       0.0334
     41  CG       129.3630   19.0950   -1.6050 C.3    13  ARG13       0.0492
     42  CD       128.2960   19.6840   -0.6870 C.3    13  ARG13       0.2205
     43  NE       128.1700   21.1230   -0.9360 N.pl3  13  ARG13      -0.0865
     44  CZ       127.3790   21.6830   -1.8590 C.cat  13  ARG13       0.5346
     45  NH1      126.6160   20.9400   -2.6330 N.pl3  13  ARG13       0.1354
     46  NH2      127.3650   23.0020   -2.0020 N.pl3  13  ARG13       0.1354
     47  N        135.4820   10.1300    9.4710 N.3    35  GLN35      -0.1245
     48  CA       134.1500   10.3590   10.0400 C.3    35  GLN35       0.1566
     49  C        134.2520   10.5270   11.5550 C.2    35  GLN35       0.2260
     50  O        133.8170   11.5340   12.1040 O.2    35  GLN35      -0.2867
     51  CB       133.2040    9.1930    9.7180 C.3    35  GLN35       0.0367
     52  CG       133.1330    8.7570    8.2370 C.3    35  GLN35       0.0905
     53  CD       132.4580    9.7650    7.3050 C.2    35  GLN35       0.2608
     54  OE1      131.7900   10.7050    7.7460 O.2    35  GLN35      -0.2717
     55  NE2      132.6130    9.5490    5.9970 N.am   35  GLN35      -0.0878
     56  N        122.1380   17.9900   -7.1580 N.3    98  MET98      -0.1230
     57  CA       123.0230   17.1900   -6.3030 C.3    98  MET98       0.1702
     58  C        122.5580   17.1770   -4.8260 C.2    98  MET98       0.2593
     59  O        122.6680   16.1500   -4.1510 O.2    98  MET98      -0.2718
     60  CB       124.4870   17.6230   -6.4590 C.3    98  MET98       0.0401
     61  CG       125.0010   17.5680   -7.8830 C.3    98  MET98       0.0596
     62  SD       124.8940   15.9350   -8.6840 S.3    98  MET98      -0.1393
     63  CE       126.1160   15.0270   -7.7290 C.3    98  MET98       0.0692
     64  N        122.0140   18.3060   -4.3650 N.am   99  SER99      -0.1952
     65  CA       121.4950   18.4600   -2.9960 C.3    99  SER99       0.1924
     66  C        120.2990   17.5850   -2.6440 C.2    99  SER99       0.2314
     67  O        120.0080   17.3980   -1.4620 O.2    99  SER99      -0.2863
     68  CB       121.0760   19.9100   -2.7510 C.3    99  SER99       0.2116
     69  OG       122.2170   20.7230   -2.8030 O.3    99  SER99      -0.2180
     70  N        122.7010   11.8340    0.9270 N.3   103  TRP103     -0.1227
     71  CA       124.0730   11.3290    1.1040 C.3   103  TRP103      0.1737
     72  C        124.3350   10.6650    2.4470 C.2   103  TRP103      0.2595
     73  O        124.9840    9.6230    2.5140 O.2   103  TRP103     -0.2718
     74  CB       125.0900   12.4680    0.8990 C.3   103  TRP103      0.0564
     75  CG       125.0060   13.0740   -0.4660 C.ar  103  TRP103      0.0003
     76  CD1      124.4600   14.2740   -0.8030 C.ar  103  TRP103      0.0946
     77  CD2      125.4200   12.4570   -1.6900 C.ar  103  TRP103      0.0152
     78  NE1      124.5360   14.4590   -2.1640 N.ar  103  TRP103     -0.2442
     79  CE2      125.1270   13.3590   -2.7280 C.ar  103  TRP103      0.0810
     80  CE3      126.0310   11.2330   -2.0020 C.ar  103  TRP103      0.0012
     81  CZ2      125.4090   13.0750   -4.0690 C.ar  103  TRP103      0.0191
     82  CZ3      126.3140   10.9520   -3.3260 C.ar  103  TRP103      0.0001
     83  CH2      126.0000   11.8690   -4.3470 C.ar  103  TRP103      0.0015
     84  N        123.7820   11.2710    3.4910 N.am  104  ALA104     -0.1980
     85  CA       123.9790   10.8580    4.8780 C.3   104  ALA104      0.1597
     86  C        122.9550    9.8700    5.4050 C.2   104  ALA104      0.2287
     87  O        123.1740    9.2790    6.4670 O.2   104  ALA104     -0.2864
     88  CB       124.0180   12.1030    5.7850 C.3   104  ALA104      0.0319
     89  N        117.6170    4.8640    1.3960 N.3   111  LYS111     -0.1245
     90  CA       118.6490    5.6210    0.6900 C.3   111  LYS111      0.1561
     91  C        118.7500    5.1500   -0.7530 C.2   111  LYS111      0.2260
     92  O        118.7130    5.9660   -1.6730 O.2   111  LYS111     -0.2867
     93  CB       119.9960    5.4550    1.4000 C.3   111  LYS111      0.0271
     94  CG       121.1370    6.3000    0.8720 C.3   111  LYS111      0.0035
     95  CD       122.4030    5.9920    1.6480 C.3   111  LYS111      0.0206
     96  CE       123.5510    6.9010    1.2450 C.3   111  LYS111      0.1093
     97  NZ       124.8470    6.5480    1.9200 N.3   111  LYS111     -0.1314
     98  N        132.4200   22.1580  -12.7160 N.3   151  TYR151     -0.1241
     99  CA       131.3590   21.6200  -11.8610 C.3   151  TYR151      0.1605
    100  C        130.4970   20.5620  -12.5720 C.2   151  TYR151      0.2264
    101  O        130.1160   19.5580  -12.0040 O.2   151  TYR151     -0.2867
    102  CB       130.5210   22.7860  -11.2680 C.3   151  TYR151      0.0534
    103  CG       129.8650   22.4150   -9.9540 C.ar  151  TYR151     -0.0201
    104  CD1      130.6140   21.8060   -8.9290 C.ar  151  TYR151     -0.0009
    105  CD2      128.5090   22.6450   -9.7300 C.ar  151  TYR151     -0.0009
    106  CE1      130.0050   21.4170   -7.7330 C.ar  151  TYR151      0.0417
    107  CE2      127.8970   22.2710   -8.5400 C.ar  151  TYR151      0.0417
    108  CZ       128.6530   21.6700   -7.5360 C.ar  151  TYR151      0.1957
    109  OH       128.0470   21.3410   -6.3290 O.3   151  TYR151     -0.2866
    110  N        132.5130   17.4540  -12.6000 N.3   154  ILE154     -0.1231
    111  CA       132.5600   16.8920  -11.2590 C.3   154  ILE154      0.1692
    112  C        131.2390   16.2300  -10.8700 C.2   154  ILE154      0.2592
    113  O        131.2200   15.0990  -10.3610 O.2   154  ILE154     -0.2718
    114  CB       132.9480   17.9750  -10.2000 C.3   154  ILE154      0.0266
    115  CG1      134.4070   18.4060  -10.3940 C.3   154  ILE154      0.0019
    116  CG2      132.7270   17.4390   -8.7600 C.3   154  ILE154      0.0020
    117  CD1      134.7830   19.6780   -9.6250 C.3   154  ILE154      0.0001
    118  N        130.1290   16.9280  -11.1090 N.am  155  CYS155     -0.1970
    119  CA       128.8210   16.3740  -10.7900 C.3   155  CYS155      0.1712
    120  C        128.5180   15.1350  -11.6480 C.2   155  CYS155      0.2296
    121  O        128.0630   14.1010  -11.1340 O.2   155  CYS155     -0.2864
    122  CB       127.7330   17.4430  -10.9810 C.3   155  CYS155      0.0983
    123  SG       127.7450   18.7620   -9.7310 S.3   155  CYS155     -0.0798
    124  N        130.2780   11.8130  -10.5330 N.3   158  THR158     -0.1218
    125  CA       129.5940   11.1620   -9.4280 C.3   158  THR158      0.1862
    126  C        128.2740   10.4880   -9.8560 C.2   158  THR158      0.2287
    127  O        127.9940    9.3370   -9.4720 O.2   158  THR158     -0.2866
    128  CB       129.3630   12.1520   -8.2490 C.3   158  THR158      0.1770
    129  OG1      130.6300   12.4970   -7.6830 O.3   158  THR158     -0.2211
    130  CG2      128.4940   11.5320   -7.1550 C.3   158  THR158      0.0375
    131  N        133.3300    8.4140   -4.0870 N.3   198  LEU198     -0.1245
    132  CA       132.6190    9.6850   -4.1530 C.3   198  LEU198      0.1561
    133  C        133.4920   10.9120   -3.9820 C.2   198  LEU198      0.2260
    134  O        134.6760   10.8330   -3.6660 O.2   198  LEU198     -0.2867
    135  CB       131.4830    9.7120   -3.1160 C.3   198  LEU198      0.0270
    136  CG       130.4220    8.5980   -3.1990 C.3   198  LEU198      0.0019
    137  CD1      129.3880    8.7960   -2.1070 C.3   198  LEU198      0.0001
    138  CD2      129.7550    8.5460   -4.5700 C.3   198  LEU198      0.0001
@<TRIPOS>BOND
     1    98    99    1
     2   110   111    1
     3   100   101    2
     4   100    99    1
     5    99   102    1
     6   120   121    2
     7   120   119    1
     8   102   103    1
     9   111   112    1
    10   111   114    1
    11   118   112   am
    12   118   119    1
    13   122   119    1
    14   122   123    1
    15   112   113    2
    16   124   125    1
    17   115   114    1
    18   115   117    1
    19   114   116    1
    20   103   105   ar
    21   103   104   ar
    22   126   127    2
    23   126   125    1
    24   105   107   ar
    25   125   128    1
    26   104   106   ar
    27    62    61    1
    28    62    63    1
    29   107   108   ar
    30   128   129    1
    31   128   130    1
    32    61    60    1
    33   106   108   ar
    34   108   109    1
    35    56    57    1
    36    60    57    1
    37    57    58    1
    38    58    64   am
    39    58    59    2
    40   138   136    1
    41    35    34    2
    42    64    65    1
    43    83    81   ar
    44    83    82   ar
    45   132   131    1
    46   132   133    1
    47   132   135    1
    48    81    79   ar
    49   133   134    2
    50    32    33    1
    51    82    80   ar
    52    34    33    1
    53    34    36   am
    54   136   135    1
    55   136   137    1
    56    65    68    1
    57    65    66    1
    58    69    68    1
    59    79    78   ar
    60    79    77   ar
    61    66    67    2
    62    45    44    1
    63    39    38    2
    64    37    38    1
    65    37    36    1
    66    37    40    1
    67    78    76   ar
    68    46    44    1
    69    80    77   ar
    70    26    27    2
    71    26    25    1
    72    44    43    2
    73    77    75   ar
    74    92    91    2
    75    41    40    1
    76    41    42    1
    77    25    28    1
    78    25    24    1
    79    43    42    1
    80    76    75   ar
    81    91    90    1
    82    75    74    1
    83    28    29    1
    84    29    30    1
    85    12    11    1
    86    10    11   ar
    87    10     8   ar
    88    30    31    1
    89    90    89    1
    90    90    93    1
    91    94    93    1
    92    94    95    1
    93    74    71    1
    94    11     9   ar
    95     8     6   ar
    96    70    71    1
    97    71    72    1
    98    96    95    1
    99    96    97    1
   100     9     7   ar
   101     6     7   ar
   102     6     5    1
   103    16    15    2
   104    72    73    2
   105    72    84   am
   106     5     2    1
   107    15    14    1
   108    84    85    1
   109    17    14    1
   110    17    18    1
   111    13    14    1
   112    13     3   am
   113     2     3    1
   114     2     1    1
   115     3     4    2
   116    20    18   ar
   117    20    22   ar
   118    85    86    1
   119    85    88    1
   120    18    19   ar
   121    86    87    2
   122    22    23   ar
   123    55    53   am
   124    19    21   ar
   125    23    21   ar
   126    53    54    2
   127    53    52    1
   128    52    51    1
   129    47    48    1
   130    51    48    1
   131    48    49    1
   132    49    50    2
