@<TRIPOS>MOLECULE
tmp/2vd1B00.pdb
 140 133 0 0 0
SMALL
GASTEIGER

@<TRIPOS>ATOM
      1  N         18.5040   14.0370   -8.5270 N.3     7  TYR7       -0.1227
      2  CA        17.8210   12.8650   -8.0560 C.3     7  TYR7        0.1736
      3  C         16.3370   13.0920   -8.3440 C.2     7  TYR7        0.2595
      4  O         15.9710   14.1520   -8.8760 O.2     7  TYR7       -0.2718
      5  CB        18.1170   12.6760   -6.5620 C.3     7  TYR7        0.0548
      6  CG        17.5920   11.3780   -6.0140 C.ar    7  TYR7       -0.0200
      7  CD1       18.0910   10.1480   -6.4860 C.ar    7  TYR7       -0.0009
      8  CD2       16.5830   11.3660   -5.0350 C.ar    7  TYR7       -0.0009
      9  CE1       17.6120    8.9660   -6.0070 C.ar    7  TYR7        0.0417
     10  CE2       16.0880   10.1540   -4.5390 C.ar    7  TYR7        0.0417
     11  CZ        16.6100    8.9650   -5.0330 C.ar    7  TYR7        0.1957
     12  OH        16.1280    7.7700   -4.5580 O.3     7  TYR7       -0.2866
     13  N         15.4930   12.1060   -8.0400 N.am    8  PHE8       -0.1976
     14  CA        14.0590   12.2980   -8.1870 C.3     8  PHE8        0.1639
     15  C         13.5510   13.2550   -7.1030 C.2     8  PHE8        0.2290
     16  O         14.2970   13.6460   -6.2080 O.2     8  PHE8       -0.2864
     17  CB        13.3120   10.9670   -8.0730 C.3     8  PHE8        0.0560
     18  CG        13.6350    9.9790   -9.1590 C.ar    8  PHE8       -0.0200
     19  CD1       13.2640   10.2290  -10.4860 C.ar    8  PHE8       -0.0042
     20  CD2       14.2790    8.7780   -8.8560 C.ar    8  PHE8       -0.0042
     21  CE1       13.5390    9.3010  -11.4890 C.ar    8  PHE8       -0.0003
     22  CE2       14.5560    7.8370   -9.8580 C.ar    8  PHE8       -0.0003
     23  CZ        14.1780    8.1030  -11.1740 C.ar    8  PHE8       -0.0000
     24  N         12.2640   13.1820   -4.2270 N.3    10  MET10      -0.1245
     25  CA        12.0530   12.3730   -3.0300 C.3    10  MET10       0.1570
     26  C         13.2950   12.3160   -2.1700 C.2    10  MET10       0.2261
     27  O         14.3730   12.7400   -2.5900 O.2    10  MET10      -0.2867
     28  CB        11.4580   10.9770   -3.3250 C.3    10  MET10       0.0387
     29  CG        12.2010   10.0530   -4.2330 C.3    10  MET10       0.0595
     30  SD        11.0930    8.6910   -4.7250 S.3    10  MET10      -0.1393
     31  CE        12.0960    7.9890   -6.0110 C.3    10  MET10       0.0692
     32  N         14.5890    9.4210   -0.6920 N.3    12  GLY12      -0.1210
     33  CA        15.2780    8.2780   -1.2840 C.3    12  GLY12       0.1956
     34  C         16.7460    8.1950   -0.9240 C.2    12  GLY12       0.2611
     35  O         17.1390    8.4430    0.2280 O.2    12  GLY12      -0.2717
     36  N         17.5590    7.8650   -1.9260 N.am   13  ARG13      -0.1979
     37  CA        19.0060    7.7390   -1.7560 C.3    13  ARG13       0.1597
     38  C         19.7710    9.0660   -1.7560 C.2    13  ARG13       0.2287
     39  O         20.9640    9.0890   -1.4660 O.2    13  ARG13      -0.2864
     40  CB        19.5770    6.7630   -2.7850 C.3    13  ARG13       0.0334
     41  CG        19.0670    5.3690   -2.5920 C.3    13  ARG13       0.0492
     42  CD        19.6830    4.3630   -3.5510 C.3    13  ARG13       0.2205
     43  NE        19.4680    3.0140   -3.0280 N.pl3  13  ARG13      -0.0865
     44  CZ        20.2550    2.4150   -2.1180 C.cat  13  ARG13       0.5346
     45  NH1       21.3410    3.0140   -1.6400 N.pl3  13  ARG13       0.1354
     46  NH2       19.9550    1.1910   -1.6960 N.pl3  13  ARG13       0.1354
     47  N          9.9520   11.7280  -13.5650 N.3    35  GLN35      -0.1245
     48  CA        10.1870   10.4190  -14.1800 C.3    35  GLN35       0.1566
     49  C         10.3280   10.4590  -15.6990 C.2    35  GLN35       0.2260
     50  O         11.0820    9.6740  -16.2670 O.2    35  GLN35      -0.2867
     51  CB         9.0880    9.4230  -13.7950 C.3    35  GLN35       0.0367
     52  CG         9.2140    8.8430  -12.3840 C.3    35  GLN35       0.0905
     53  CD        10.3940    7.8760  -12.2250 C.2    35  GLN35       0.2608
     54  OE1       10.9510    7.3630  -13.2090 O.2    35  GLN35      -0.2717
     55  NE2       10.7680    7.6150  -10.9690 N.am   35  GLN35      -0.0878
     56  N         22.1480   -0.0110    4.6280 N.3    95  ASP95      -0.1239
     57  CA        21.9910    0.0050    3.1760 C.3    95  ASP95       0.1674
     58  C         21.6570   -1.3570    2.5830 C.2    95  ASP95       0.2266
     59  O         20.8810   -1.4210    1.6370 O.2    95  ASP95      -0.2867
     60  CB        23.2080    0.5840    2.4630 C.3    95  ASP95       0.1410
     61  CG        22.8300    1.2340    1.1200 C.2    95  ASP95       0.3668
     62  OD1       21.9400    2.1070    1.1300 O.co2  95  ASP95      -0.2456
     63  OD2       23.4160    0.8940    0.0690 O.co2  95  ASP95      -0.2456
     64  N         17.8970   -1.7430    3.1450 N.3    98  MET98      -0.1245
     65  CA        17.0640   -0.8760    2.2860 C.3    98  MET98       0.1570
     66  C         17.1240   -1.2890    0.8030 C.2    98  MET98       0.2261
     67  O         16.1310   -1.1080    0.0690 O.2    98  MET98      -0.2867
     68  CB        17.3900    0.6080    2.4480 C.3    98  MET98       0.0387
     69  CG        17.3340    1.1250    3.8880 C.3    98  MET98       0.0595
     70  SD        15.7480    0.8300    4.7280 S.3    98  MET98      -0.1393
     71  CE        14.6800    2.1010    4.0110 C.3    98  MET98       0.0692
     72  N         11.8380   -1.1760   -4.9060 N.3   103  TRP103     -0.1227
     73  CA        11.3530    0.2120   -5.0530 C.3   103  TRP103      0.1737
     74  C         10.7520    0.5140   -6.4270 C.2   103  TRP103      0.2595
     75  O          9.7810    1.2840   -6.5400 O.2   103  TRP103     -0.2718
     76  CB        12.4690    1.2230   -4.7430 C.3   103  TRP103      0.0564
     77  CG        13.0810    1.0470   -3.3920 C.ar  103  TRP103      0.0003
     78  CD1       14.3080    0.5030   -3.1030 C.ar  103  TRP103      0.0946
     79  CD2       12.4810    1.3760   -2.1320 C.ar  103  TRP103      0.0152
     80  NE1       14.5130    0.4890   -1.7370 N.ar  103  TRP103     -0.2442
     81  CE2       13.4100    1.0260   -1.1200 C.ar  103  TRP103      0.0810
     82  CE3       11.2490    1.9460   -1.7570 C.ar  103  TRP103      0.0012
     83  CZ2       13.1390    1.2190    0.2500 C.ar  103  TRP103      0.0191
     84  CZ3       10.9890    2.1450   -0.3950 C.ar  103  TRP103      0.0001
     85  CH2       11.9320    1.7800    0.5880 C.ar  103  TRP103      0.0015
     86  N         11.3400   -0.1070   -7.4460 N.am  104  ALA104     -0.1980
     87  CA        10.9260    0.0420   -8.8360 C.3   104  ALA104      0.1597
     88  C         10.3070   -1.2510   -9.3790 C.2   104  ALA104      0.2287
     89  O         10.7370   -1.7840  -10.4120 O.2   104  ALA104     -0.2864
     90  CB        12.1050    0.4720   -9.6950 C.3   104  ALA104      0.0319
     91  N          5.0140   -6.3100   -5.4560 N.3   111  LYS111     -0.1245
     92  CA         5.7100   -5.2550   -4.7150 C.3   111  LYS111      0.1561
     93  C          5.2090   -5.1890   -3.2740 C.2   111  LYS111      0.2260
     94  O          6.0170   -5.2470   -2.3440 O.2   111  LYS111     -0.2867
     95  CB         5.5380   -3.9050   -5.4100 C.3   111  LYS111      0.0271
     96  CG         6.3290   -2.7760   -4.8000 C.3   111  LYS111      0.0035
     97  CD         6.0780   -1.4960   -5.5650 C.3   111  LYS111      0.0206
     98  CE         6.8550   -0.3390   -4.9830 C.3   111  LYS111      0.1093
     99  NZ         6.4060    0.9380   -5.5950 N.3   111  LYS111     -0.1314
    100  N         22.1410    8.5120    8.6250 N.3   151  TYR151     -0.1241
    101  CA        21.6180    7.4230    7.7990 C.3   151  TYR151      0.1605
    102  C         20.5930    6.5690    8.5750 C.2   151  TYR151      0.2264
    103  O         19.6070    6.1320    8.0180 O.2   151  TYR151     -0.2867
    104  CB        22.7740    6.5910    7.1840 C.3   151  TYR151      0.0534
    105  CG        22.3980    5.9360    5.8700 C.ar  151  TYR151     -0.0201
    106  CD1       21.8550    6.6880    4.8400 C.ar  151  TYR151     -0.0009
    107  CD2       22.5750    4.5670    5.6540 C.ar  151  TYR151     -0.0009
    108  CE1       21.4820    6.0990    3.6350 C.ar  151  TYR151      0.0417
    109  CE2       22.2050    3.9630    4.4370 C.ar  151  TYR151      0.0417
    110  CZ        21.6630    4.7420    3.4290 C.ar  151  TYR151      0.1957
    111  OH        21.3070    4.1960    2.2030 O.3   151  TYR151     -0.2866
    112  N         17.4090    8.4460    8.5780 N.3   154  ILE154     -0.1231
    113  CA        16.8280    8.5010    7.2380 C.3   154  ILE154      0.1692
    114  C         16.1760    7.1690    6.8610 C.2   154  ILE154      0.2592
    115  O         15.0620    7.1370    6.3160 O.2   154  ILE154     -0.2718
    116  CB        17.8940    8.9570    6.1880 C.3   154  ILE154      0.0266
    117  CG1       18.2430   10.4410    6.4020 C.3   154  ILE154      0.0019
    118  CG2       17.4080    8.7010    4.7410 C.3   154  ILE154      0.0020
    119  CD1       19.5160   10.8870    5.6830 C.3   154  ILE154      0.0001
    120  N         16.8780    6.0680    7.1340 N.am  155  CYS155     -0.1970
    121  CA        16.3490    4.7400    6.8170 C.3   155  CYS155      0.1712
    122  C         15.1210    4.4410    7.6840 C.2   155  CYS155      0.2296
    123  O         14.1010    4.0060    7.1770 O.2   155  CYS155     -0.2864
    124  CB        17.4380    3.6670    6.9870 C.3   155  CYS155      0.0983
    125  SG        18.7450    3.7700    5.7210 S.3   155  CYS155     -0.0798
    126  N         11.8910    6.2060    6.5760 N.3   158  THR158     -0.1218
    127  CA        11.1260    5.5730    5.4860 C.3   158  THR158      0.1862
    128  C         10.5070    4.2290    5.8750 C.2   158  THR158      0.2287
    129  O          9.4210    3.9030    5.4220 O.2   158  THR158     -0.2866
    130  CB        11.9120    5.4740    4.1480 C.3   158  THR158      0.1770
    131  OG1       12.1000    6.7910    3.6120 O.3   158  THR158     -0.2211
    132  CG2       11.1160    4.6660    3.1240 C.3   158  THR158      0.0375
    133  N          8.3780    9.1670    0.0530 N.3   198  LEU198     -0.1245
    134  CA         9.6210    8.4320    0.0990 C.3   198  LEU198      0.1561
    135  C         10.8610    9.3340   -0.0180 C.2   198  LEU198      0.2260
    136  O         10.7570   10.5340   -0.3020 O.2   198  LEU198     -0.2867
    137  CB         9.6140    7.3590   -0.9900 C.3   198  LEU198      0.0270
    138  CG         8.5130    6.2960   -0.9290 C.3   198  LEU198      0.0019
    139  CD1        8.7510    5.2840   -2.0550 C.3   198  LEU198      0.0001
    140  CD2        8.4560    5.6060    0.4400 C.3   198  LEU198      0.0001
@<TRIPOS>BOND
     1    50    49    2
     2    49    48    1
     3    48    51    1
     4    48    47    1
     5    51    52    1
     6    54    53    2
     7    52    53    1
     8    53    55   am
     9    21    23   ar
    10    21    19   ar
    11    23    22   ar
    12    19    18   ar
    13    89    88    2
    14    22    20   ar
    15    90    87    1
    16    88    87    1
    17    18    20   ar
    18    18    17    1
    19     4     3    2
    20    87    86    1
    21     1     2    1
    22     3     2    1
    23     3    13   am
    24    14    17    1
    25    14    13    1
    26    14    15    1
    27     2     5    1
    28    86    74   am
    29    15    16    2
    30     5     6    1
    31    75    74    2
    32     7     6   ar
    33     7     9   ar
    34    74    73    1
    35     6     8   ar
    36    31    30    1
    37     9    11   ar
    38    99    98    1
    39    97    98    1
    40    97    96    1
    41    91    92    1
    42    95    96    1
    43    95    92    1
    44    73    72    1
    45    73    76    1
    46     8    10   ar
    47    11    12    1
    48    11    10   ar
    49    76    77    1
    50    30    29    1
    51    92    93    1
    52    29    28    1
    53    24    25    1
    54    42    43    1
    55    42    41    1
    56    77    78   ar
    57    77    79   ar
    58    28    25    1
    59    93    94    2
    60    78    80   ar
    61    25    26    1
    62    43    44    2
    63    40    41    1
    64    40    37    1
    65    27    26    2
    66    79    82   ar
    67    79    81   ar
    68    44    46    1
    69    44    45    1
    70   139   138    1
    71    36    37    1
    72    36    34   am
    73    82    84   ar
    74    38    37    1
    75    38    39    2
    76    80    81   ar
    77    33    34    1
    78    33    32    1
    79    81    83   ar
    80   137   138    1
    81   137   134    1
    82   138   140    1
    83    34    35    2
    84    84    85   ar
    85   136   135    2
    86   135   134    1
    87   133   134    1
    88    67    66    2
    89    63    61   ar
    90    83    85   ar
    91    66    65    1
    92    61    62   ar
    93    61    60    1
    94    59    58    2
    95   111   110    1
    96    65    68    1
    97    65    64    1
    98    68    69    1
    99    60    57    1
   100    58    57    1
   101   132   130    1
   102    57    56    1
   103   110   108   ar
   104   110   109   ar
   105   131   130    1
   106   108   106   ar
   107    69    70    1
   108    71    70    1
   109   130   127    1
   110   109   107   ar
   111   118   116    1
   112   106   105   ar
   113   129   128    2
   114   127   128    1
   115   127   126    1
   116   107   105   ar
   117   119   117    1
   118   125   124    1
   119   105   104    1
   120   116   117    1
   121   116   113    1
   122   115   114    2
   123   121   124    1
   124   121   120    1
   125   121   122    1
   126   114   120   am
   127   114   113    1
   128   123   122    2
   129   104   101    1
   130   113   112    1
   131   101   102    1
   132   101   100    1
   133   103   102    2
