@<TRIPOS>MOLECULE
tmp/2vd3B03.pdb
 76 68 0 0 0
SMALL
GASTEIGER

@<TRIPOS>ATOM
      1  N         49.7050   78.8360   42.3790 N.3    92  ARG92      -0.1231
      2  CA        49.5820   77.3850   42.3990 C.3    92  ARG92       0.1694
      3  C         50.1740   76.8240   43.6850 C.2    92  ARG92       0.2592
      4  O         51.2040   77.3090   44.1860 O.2    92  ARG92      -0.2718
      5  CB        50.2840   76.7540   41.1990 C.3    92  ARG92       0.0321
      6  CG        49.3840   76.4770   40.0240 C.3    92  ARG92       0.0489
      7  CD        49.1780   77.7070   39.1700 C.3    92  ARG92       0.2205
      8  NE        48.1100   77.5030   38.1920 N.pl3  92  ARG92      -0.0865
      9  CZ        48.2790   76.9630   36.9880 C.cat  92  ARG92       0.5346
     10  NH1       49.4850   76.5570   36.5960 N.pl3  92  ARG92       0.1354
     11  NH2       47.2350   76.8290   36.1770 N.pl3  92  ARG92       0.1354
     12  N         49.5120   75.8050   44.2200 N.am   93  ALA93      -0.1966
     13  CA        49.9760   75.1430   45.4240 C.3    93  ALA93       0.1728
     14  C         49.1610   73.8900   45.5800 C.2    93  ALA93       0.2616
     15  O         47.9780   73.8690   45.2470 O.2    93  ALA93      -0.2715
     16  CB        49.8110   76.0480   46.6460 C.3    93  ALA93       0.0334
     17  N         49.8020   72.8360   46.0620 N.am   94  SER94      -0.1950
     18  CA        49.0930   71.6200   46.3750 C.3    94  SER94       0.1924
     19  C         48.8070   71.5820   47.8710 C.2    94  SER94       0.2314
     20  O         49.6630   71.9440   48.6830 O.2    94  SER94      -0.2863
     21  CB        49.9170   70.4090   45.9490 C.3    94  SER94       0.2116
     22  OG        49.5710   69.9880   44.6380 O.3    94  SER94      -0.2180
     23  N         48.7170   69.0630   50.4260 N.3    96  VAL96      -0.1245
     24  CA        49.2520   67.7120   50.5560 C.3    96  VAL96       0.1561
     25  C         48.9510   67.1370   51.9320 C.2    96  VAL96       0.2260
     26  O         48.7670   67.8860   52.9010 O.2    96  VAL96      -0.2867
     27  CB        50.7940   67.6700   50.3100 C.3    96  VAL96       0.0252
     28  CG1       51.1250   68.0110   48.8590 C.3    96  VAL96       0.0019
     29  CG2       51.5130   68.6260   51.2400 C.3    96  VAL96       0.0019
     30  N         51.8640   73.5270   49.7640 N.3   161  SER161     -0.1202
     31  CA        53.1800   73.8210   49.1820 C.3   161  SER161      0.2020
     32  C         53.2540   73.6690   47.6640 C.2   161  SER161      0.2619
     33  O         52.4980   72.9020   47.0720 O.2   161  SER161     -0.2717
     34  CB        54.2560   72.9550   49.8370 C.3   161  SER161      0.2103
     35  OG        54.0030   71.5780   49.6330 O.3   161  SER161     -0.2182
     36  N         54.1680   74.4150   47.0460 N.am  162  SER162     -0.1951
     37  CA        54.5040   74.2380   45.6280 C.3   162  SER162      0.1924
     38  C         55.8960   73.6370   45.4900 C.2   162  SER162      0.2314
     39  O         56.1860   72.9250   44.5250 O.2   162  SER162     -0.2863
     40  CB        54.4050   75.5540   44.8540 C.3   162  SER162      0.2116
     41  OG        55.3130   76.5200   45.3540 O.3   162  SER162     -0.2180
     42  N         58.3640   71.2140   47.9380 N.3   164  GLY164     -0.1225
     43  CA        58.2890   70.3780   49.1370 C.3   164  GLY164      0.1811
     44  C         59.3440   70.7100   50.1810 C.2   164  GLY164      0.2280
     45  O         59.6650   69.8760   51.0330 O.2   164  GLY164     -0.2866
     46  N         58.3860   71.2330   54.0720 N.3   167  LEU167     -0.1245
     47  CA        58.1880   69.8590   54.5220 C.3   167  LEU167      0.1561
     48  C         59.5200   69.1300   54.7400 C.2   167  LEU167      0.2260
     49  O         59.7030   68.4510   55.7540 O.2   167  LEU167     -0.2867
     50  CB        57.3050   69.1040   53.5170 C.3   167  LEU167      0.0270
     51  CG        55.8460   69.5670   53.4240 C.3   167  LEU167      0.0019
     52  CD1       55.2710   69.3730   52.0290 C.3   167  LEU167      0.0001
     53  CD2       54.9860   68.8660   54.4560 C.3   167  LEU167      0.0001
     54  N         55.5950   63.7360   52.0140 N.3   174  VAL174     -0.1245
     55  CA        54.2840   63.7590   51.3690 C.3   174  VAL174      0.1561
     56  C         53.8130   62.3260   51.1250 C.2   174  VAL174      0.2260
     57  O         54.5720   61.4950   50.6210 O.2   174  VAL174     -0.2867
     58  CB        54.3270   64.5560   50.0530 C.3   174  VAL174      0.0252
     59  CG1       53.0870   64.3060   49.2210 C.3   174  VAL174      0.0019
     60  CG2       54.4900   66.0390   50.3450 C.3   174  VAL174      0.0019
     61  N         48.3000   63.7620   47.6990 N.3   177  THR177     -0.1218
     62  CA        47.8460   65.1020   47.3790 C.3   177  THR177      0.1862
     63  C         46.3270   65.1490   47.4940 C.2   177  THR177      0.2287
     64  O         45.6190   64.3750   46.8420 O.2   177  THR177     -0.2866
     65  CB        48.2760   65.5470   45.9680 C.3   177  THR177      0.1770
     66  OG1       49.7030   65.6680   45.9150 O.3   177  THR177     -0.2211
     67  CG2       47.6240   66.9210   45.6010 C.3   177  THR177      0.0375
     68  N         44.6630   70.2790   44.2780 N.3   180  GLU180     -0.1245
     69  CA        45.5910   71.1760   43.5910 C.3   180  GLU180      0.1567
     70  C         44.9730   72.5570   43.4350 C.2   180  GLU180      0.2260
     71  O         43.8810   72.7040   42.8740 O.2   180  GLU180     -0.2867
     72  CB        46.0240   70.6000   42.2430 C.3   180  GLU180      0.0388
     73  CG        47.0450   69.4740   42.3860 C.3   180  GLU180      0.1160
     74  CD        47.4610   68.8740   41.0600 C.2   180  GLU180      0.3649
     75  OE1       46.5780   68.5930   40.2250 O.co2 180  GLU180     -0.2457
     76  OE2       48.6760   68.6740   40.8610 O.co2 180  GLU180     -0.2457
@<TRIPOS>BOND
     1    11     9    1
     2    10     9    1
     3     9     8    2
     4     8     7    1
     5     7     6    1
     6     6     5    1
     7    75    74   ar
     8    76    74   ar
     9    74    73    1
    10     5     2    1
    11    72    73    1
    12    72    69    1
    13     1     2    1
    14     2     3    1
    15    71    70    2
    16    70    69    1
    17    69    68    1
    18     3     4    2
    19     3    12   am
    20    12    13    1
    21    39    38    2
    22    22    21    1
    23    40    41    1
    24    40    37    1
    25    15    14    2
    26    13    14    1
    27    13    16    1
    28    38    37    1
    29    14    17   am
    30    67    65    1
    31    37    36    1
    32    66    65    1
    33    21    18    1
    34    65    62    1
    35    17    18    1
    36    18    19    1
    37    64    63    2
    38    36    32   am
    39    33    32    2
    40    62    63    1
    41    62    61    1
    42    32    31    1
    43    19    20    2
    44    42    43    1
    45    28    27    1
    46    43    44    1
    47    31    30    1
    48    31    34    1
    49    59    58    1
    50    35    34    1
    51    58    60    1
    52    58    55    1
    53    44    45    2
    54    27    24    1
    55    27    29    1
    56    23    24    1
    57    24    25    1
    58    57    56    2
    59    56    55    1
    60    55    54    1
    61    25    26    2
    62    52    51    1
    63    51    50    1
    64    51    53    1
    65    50    47    1
    66    46    47    1
    67    47    48    1
    68    48    49    2
