@<TRIPOS>MOLECULE
tmp/2vd4A00.pdb
 121 112 0 0 0
SMALL
GASTEIGER

@<TRIPOS>ATOM
      1  N         72.6100   40.3410   46.5450 N.3   128  VAL128     -0.1245
      2  CA        71.3080   39.8960   46.0750 C.3   128  VAL128      0.1561
      3  C         70.6470   39.0310   47.1410 C.2   128  VAL128      0.2260
      4  O         71.3010   38.2010   47.7710 O.2   128  VAL128     -0.2867
      5  CB        71.4450   39.1350   44.7220 C.3   128  VAL128      0.0252
      6  CG1       72.1050   37.7860   44.9000 C.3   128  VAL128      0.0019
      7  CG2       70.1030   39.0000   44.0300 C.3   128  VAL128      0.0019
      8  N         68.2610   36.0480   48.1520 N.3   130  LEU130     -0.1245
      9  CA        67.7510   34.7780   47.6510 C.3   130  LEU130      0.1561
     10  C         66.8580   34.1110   48.6960 C.2   130  LEU130      0.2260
     11  O         67.1590   34.1490   49.8810 O.2   130  LEU130     -0.2867
     12  CB        68.9090   33.8430   47.3150 C.3   130  LEU130      0.0270
     13  CG        69.9770   34.4030   46.3630 C.3   130  LEU130      0.0019
     14  CD1       71.0360   33.3600   46.1240 C.3   130  LEU130      0.0001
     15  CD2       69.3550   34.8450   45.0500 C.3   130  LEU130      0.0001
     16  N         66.3760   30.8480   48.7900 N.3   132  ASN132     -0.1240
     17  CA        67.2780   29.7580   49.1470 C.3   132  ASN132      0.1653
     18  C         68.7460   30.1430   48.8530 C.2   132  ASN132      0.2266
     19  O         69.2630   29.9000   47.7490 O.2   132  ASN132     -0.2867
     20  CB        66.9050   28.4640   48.4160 C.3   132  ASN132      0.1155
     21  CG        67.7190   27.2690   48.8940 C.2   132  ASN132      0.2627
     22  OD1       68.5210   27.3790   49.8250 O.2   132  ASN132     -0.2716
     23  ND2       67.5200   26.1200   48.2560 N.am  132  ASN132     -0.0877
     24  N         71.4120   28.7930   50.0100 N.3   134  THR134     -0.1218
     25  CA        72.3180   27.6540   50.1920 C.3   134  THR134      0.1862
     26  C         73.4070   27.5900   49.1040 C.2   134  THR134      0.2287
     27  O         73.0990   27.6340   47.9130 O.2   134  THR134     -0.2866
     28  CB        71.4940   26.3450   50.2030 C.3   134  THR134      0.1770
     29  OG1       70.4850   26.4130   51.2190 O.3   134  THR134     -0.2211
     30  CG2       72.3430   25.1400   50.5940 C.3   134  THR134      0.0375
     31  N         75.9020   29.8940   48.7530 N.3   136  TYR136     -0.1241
     32  CA        76.3920   31.2320   48.4420 C.3   136  TYR136      0.1605
     33  C         76.9940   31.9190   49.6750 C.2   136  TYR136      0.2264
     34  O         76.6620   31.5710   50.8080 O.2   136  TYR136     -0.2867
     35  CB        75.2580   32.0770   47.8450 C.3   136  TYR136      0.0534
     36  CG        74.7270   31.4830   46.5580 C.ar  136  TYR136     -0.0201
     37  CD1       73.6080   30.6660   46.5660 C.ar  136  TYR136     -0.0009
     38  CD2       75.3800   31.6840   45.3450 C.ar  136  TYR136     -0.0009
     39  CE1       73.1170   30.1000   45.3990 C.ar  136  TYR136      0.0417
     40  CE2       74.9050   31.1060   44.1630 C.ar  136  TYR136      0.0417
     41  CZ        73.7640   30.3140   44.2060 C.ar  136  TYR136      0.1957
     42  OH        73.2590   29.7210   43.0680 O.3   136  TYR136     -0.2866
     43  N         73.2910   37.6320   49.7880 N.3   165  VAL165     -0.1231
     44  CA        74.5280   36.9730   49.3720 C.3   165  VAL165      0.1692
     45  C         75.3590   37.8050   48.3860 C.2   165  VAL165      0.2592
     46  O         74.8570   38.7370   47.7550 O.2   165  VAL165     -0.2718
     47  CB        74.2670   35.5660   48.7700 C.3   165  VAL165      0.0266
     48  CG1       73.4360   34.7110   49.7280 C.3   165  VAL165      0.0020
     49  CG2       73.5790   35.6470   47.4120 C.3   165  VAL165      0.0020
     50  N         76.6310   37.4310   48.2640 N.am  166  ASN166     -0.1960
     51  CA        77.6120   38.1220   47.4230 C.3   166  ASN166      0.1819
     52  C         77.4390   37.7680   45.9480 C.2   166  ASN166      0.2621
     53  O         77.2830   36.5900   45.6100 O.2   166  ASN166     -0.2715
     54  CB        79.0170   37.6970   47.8790 C.3   166  ASN166      0.1195
     55  CG        80.1060   38.2020   46.9750 C.2   166  ASN166      0.2630
     56  OD1       80.0910   39.3420   46.5710 O.2   166  ASN166     -0.2716
     57  ND2       81.0670   37.3490   46.6640 N.am  166  ASN166     -0.0877
     58  N         77.4780   38.7760   45.0750 N.am  167  THR167     -0.1951
     59  CA        77.4650   38.5340   43.6260 C.3   167  THR167      0.1897
     60  C         78.8370   38.5540   42.9580 C.2   167  THR167      0.2313
     61  O         78.9640   38.0970   41.8290 O.2   167  THR167     -0.2863
     62  CB        76.5980   39.5710   42.8910 C.3   167  THR167      0.1794
     63  OG1       77.2280   40.8620   42.9390 O.3   167  THR167     -0.2208
     64  CG2       75.2490   39.7360   43.5480 C.3   167  THR167      0.0378
     65  N         66.8440   39.4430   40.9570 N.3   217  VAL217     -0.1231
     66  CA        67.8230   38.3480   40.9070 C.3   217  VAL217      0.1692
     67  C         68.3300   38.1360   39.4710 C.2   217  VAL217      0.2591
     68  O         69.5240   37.9250   39.2530 O.2   217  VAL217     -0.2718
     69  CB        67.2730   37.0050   41.4540 C.3   217  VAL217      0.0266
     70  CG1       68.3240   35.8940   41.3320 C.3   217  VAL217      0.0020
     71  CG2       66.8290   37.1370   42.9130 C.3   217  VAL217      0.0020
     72  N         67.4280   38.1980   38.4900 N.am  218  MET218     -0.1979
     73  CA        67.8000   37.9090   37.0950 C.3   218  MET218      0.1605
     74  C         68.8470   38.8680   36.5640 C.2   218  MET218      0.2287
     75  O         69.6420   38.5350   35.6890 O.2   218  MET218     -0.2864
     76  CB        66.5570   37.9350   36.1870 C.3   218  MET218      0.0413
     77  CG        65.6780   36.7250   36.3450 C.3   218  MET218      0.0598
     78  SD        66.5120   35.2380   35.7920 S.3   218  MET218     -0.1393
     79  CE        66.4210   35.3670   34.0210 C.3   218  MET218      0.0692
     80  N         71.5010   39.7980   37.9410 N.3   220  VAL220     -0.1231
     81  CA        72.8490   39.3320   38.2430 C.3   220  VAL220      0.1692
     82  C         73.1360   37.8920   37.8050 C.2   220  VAL220      0.2592
     83  O         74.2550   37.4170   37.9730 O.2   220  VAL220     -0.2718
     84  CB        73.1750   39.5170   39.7500 C.3   220  VAL220      0.0266
     85  CG1       73.1440   40.9880   40.1090 C.3   220  VAL220      0.0020
     86  CG2       72.2120   38.7470   40.6370 C.3   220  VAL220      0.0020
     87  N         72.1540   37.2060   37.2250 N.am  221  GLU221     -0.1966
     88  CA        72.3480   35.8220   36.8080 C.3   221  GLU221      0.1733
     89  C         73.2670   35.7140   35.5970 C.2   221  GLU221      0.2616
     90  O         73.1930   36.5240   34.6840 O.2   221  GLU221     -0.2715
     91  CB        71.0160   35.1450   36.4680 C.3   221  GLU221      0.0429
     92  CG        70.0970   34.9430   37.6560 C.3   221  GLU221      0.1163
     93  CD        70.4070   33.7230   38.4820 C.2   221  GLU221      0.3649
     94  OE1       71.5380   33.1930   38.4070 O.co2 221  GLU221     -0.2457
     95  OE2       69.5020   33.2960   39.2420 O.co2 221  GLU221     -0.2457
     96  N         74.1300   34.7070   35.6180 N.am  222  GLY222     -0.1955
     97  CA        74.9340   34.3250   34.4660 C.3   222  GLY222      0.1869
     98  C         74.3880   33.0660   33.8020 C.2   222  GLY222      0.2309
     99  O         73.5360   32.3580   34.3740 O.2   222  GLY222     -0.2863
    100  N         69.9740   28.0330   30.8590 N.3   228  GLN228     -0.1245
    101  CA        70.0710   29.3050   31.5710 C.3   228  GLN228      0.1566
    102  C         70.0510   30.4760   30.5880 C.2   228  GLN228      0.2260
    103  O         69.4210   31.4990   30.8480 O.2   228  GLN228     -0.2867
    104  CB        71.3270   29.3290   32.4570 C.3   228  GLN228      0.0367
    105  CG        71.2730   28.2660   33.5840 C.3   228  GLN228      0.0905
    106  CD        72.5790   28.1460   34.3670 C.2   228  GLN228      0.2608
    107  OE1       73.5740   28.7270   33.9830 O.2   228  GLN228     -0.2717
    108  NE2       72.5630   27.4010   35.4720 N.am  228  GLN228     -0.0878
    109  N         66.6000   31.2330   29.5830 N.3   231  ALA231     -0.1231
    110  CA        65.9190   31.9330   30.6610 C.3   231  ALA231      0.1694
    111  C         66.2490   33.4250   30.6150 C.2   231  ALA231      0.2591
    112  O         65.3540   34.2660   30.7750 O.2   231  ALA231     -0.2718
    113  CB        66.2580   31.3230   32.0230 C.3   231  ALA231      0.0304
    114  N         67.5180   33.7570   30.3740 N.am  232  LEU232     -0.1980
    115  CA        67.9240   35.1550   30.2430 C.3   232  LEU232      0.1596
    116  C         67.2300   35.7980   29.0390 C.2   232  LEU232      0.2287
    117  O         66.7830   36.9480   29.1220 O.2   232  LEU232     -0.2864
    118  CB        69.4380   35.2910   30.0550 C.3   232  LEU232      0.0297
    119  CG        70.3530   34.7760   31.1710 C.3   232  LEU232      0.0022
    120  CD1       71.8310   34.9370   30.7690 C.3   232  LEU232      0.0001
    121  CD2       70.0420   35.4850   32.4640 C.3   232  LEU232      0.0001
@<TRIPOS>BOND
     1   116   117    2
     2   116   115    1
     3   109   110    1
     4   118   115    1
     5   118   119    1
     6   115   114    1
     7   114   111   am
     8   102   103    2
     9   102   101    1
    10   111   110    1
    11   111   112    2
    12   110   113    1
    13   120   119    1
    14   100   101    1
    15   119   121    1
    16   101   104    1
    17   104   105    1
    18   105   106    1
    19    98    99    2
    20    98    97    1
    21   107   106    2
    22    79    78    1
    23   106   108   am
    24    97    96    1
    25    90    89    2
    26    89    96   am
    27    89    88    1
    28    75    74    2
    29    78    77    1
    30    76    77    1
    31    76    73    1
    32    91    88    1
    33    91    92    1
    34    74    73    1
    35    88    87    1
    36    73    72    1
    37    87    82   am
    38    92    93    1
    39    82    83    2
    40    82    81    1
    41    80    81    1
    42    81    84    1
    43    94    93   ar
    44    93    95   ar
    45    72    67   am
    46    68    67    2
    47    67    66    1
    48    84    85    1
    49    84    86    1
    50    66    65    1
    51    66    69    1
    52    70    69    1
    53    69    71    1
    54    61    60    2
    55    62    63    1
    56    62    64    1
    57    62    59    1
    58    60    59    1
    59    42    41    1
    60    59    58    1
    61     7     5    1
    62    40    41   ar
    63    40    38   ar
    64    41    39   ar
    65     5     6    1
    66     5     2    1
    67    15    13    1
    68    58    52   am
    69    38    36   ar
    70    39    37   ar
    71    53    52    2
    72    52    51    1
    73     2     1    1
    74     2     3    1
    75    14    13    1
    76    13    12    1
    77    36    37   ar
    78    36    35    1
    79    56    55    2
    80    57    55   am
    81    55    54    1
    82     3     4    2
    83    12     9    1
    84    49    47    1
    85    51    54    1
    86    51    50    1
    87     9     8    1
    88     9    10    1
    89    19    18    2
    90    46    45    2
    91    35    32    1
    92    27    26    2
    93    23    21   am
    94    50    45   am
    95    45    44    1
    96    20    21    1
    97    20    17    1
    98    32    31    1
    99    32    33    1
   100    10    11    2
   101    47    44    1
   102    47    48    1
   103    16    17    1
   104    18    17    1
   105    21    22    2
   106    26    25    1
   107    44    43    1
   108    33    34    2
   109    24    25    1
   110    25    28    1
   111    28    30    1
   112    28    29    1
