@<TRIPOS>MOLECULE
tmp/2vd4A01.pdb
 95 93 0 0 0
SMALL
GASTEIGER

@<TRIPOS>ATOM
      1  N         79.6610   51.1900   28.7150 N.3    41  HIS41      -0.1241
      2  CA        79.7810   52.4240   27.9380 C.3    41  HIS41       0.1621
      3  C         78.7140   53.4510   28.3590 C.2    41  HIS41       0.2264
      4  O         79.0140   54.6360   28.5040 O.2    41  HIS41      -0.2867
      5  CB        79.7320   52.1350   26.4200 C.3    41  HIS41       0.0745
      6  CG        79.9170   53.3530   25.5560 C.ar   41  HIS41       0.0817
      7  ND1       81.0810   54.0960   25.5470 N.ar   41  HIS41      -0.2268
      8  CD2       79.0800   53.9580   24.6760 C.ar   41  HIS41       0.1154
      9  CE1       80.9520   55.1080   24.7030 C.ar   41  HIS41       0.1986
     10  NE2       79.7470   55.0460   24.1620 N.ar   41  HIS41      -0.2212
     11  N         81.9950   54.7070   31.1190 N.3    45  SER45      -0.1202
     12  CA        83.3290   54.1240   31.2870 C.3    45  SER45       0.2020
     13  C         84.3160   54.7180   30.2850 C.2    45  SER45       0.2619
     14  O         84.0350   54.7810   29.0860 O.2    45  SER45      -0.2717
     15  CB        83.2760   52.5990   31.1150 C.3    45  SER45       0.2103
     16  OG        82.5950   52.0040   32.1980 O.3    45  SER45      -0.2182
     17  N         85.4730   55.1540   30.7720 N.am   46  GLU46      -0.1965
     18  CA        86.5000   55.7140   29.9060 C.3    46  GLU46       0.1733
     19  C         87.2520   54.5990   29.2020 C.2    46  GLU46       0.2616
     20  O         87.4810   54.6640   28.0010 O.2    46  GLU46      -0.2715
     21  CB        87.4750   56.5730   30.7090 C.3    46  GLU46       0.0429
     22  CG        88.2480   57.5370   29.8430 C.3    46  GLU46       0.1163
     23  CD        89.2340   58.3820   30.6220 C.2    46  GLU46       0.3649
     24  OE1       89.0700   58.5480   31.8580 O.co2  46  GLU46      -0.2457
     25  OE2       90.1730   58.8890   29.9750 O.co2  46  GLU46      -0.2457
     26  N         87.6460   53.5790   29.9620 N.am   47  ASN47      -0.1958
     27  CA        88.2630   52.3790   29.4090 C.3    47  ASN47       0.1819
     28  C         87.4100   51.1670   29.7980 C.2    47  ASN47       0.2621
     29  O         86.7590   51.1740   30.8360 O.2    47  ASN47      -0.2715
     30  CB        89.6740   52.1720   29.9540 C.3    47  ASN47       0.1195
     31  CG        90.6340   53.2600   29.5260 C.2    47  ASN47       0.2630
     32  OD1       90.6990   53.6170   28.3470 O.2    47  ASN47      -0.2716
     33  ND2       91.3860   53.7880   30.4800 N.am   47  ASN47      -0.0877
     34  N         87.4100   50.1620   28.9420 N.am   48  ILE48      -0.1963
     35  CA        86.8020   48.8710   29.2400 C.3    48  ILE48       0.1727
     36  C         87.8600   47.8130   28.9760 C.2    48  ILE48       0.2616
     37  O         88.2550   47.5770   27.8230 O.2    48  ILE48      -0.2715
     38  CB        85.5580   48.6230   28.3600 C.3    48  ILE48       0.0290
     39  CG1       84.5110   49.7110   28.6070 C.3    48  ILE48       0.0022
     40  CG2       84.9810   47.2300   28.6300 C.3    48  ILE48       0.0023
     41  CD1       83.3970   49.7460   27.5560 C.3    48  ILE48       0.0001
     42  N         88.3130   47.1710   30.0480 N.am   49  HIS49      -0.1973
     43  CA        89.3150   46.1360   29.9600 C.3    49  HIS49       0.1656
     44  C         88.6650   44.7610   29.8360 C.2    49  HIS49       0.2291
     45  O         88.0600   44.2650   30.7740 O.2    49  HIS49      -0.2864
     46  CB        90.2180   46.1870   31.1880 C.3    49  HIS49       0.0771
     47  CG        90.8120   47.5330   31.4320 C.ar   49  HIS49       0.0820
     48  ND1       91.9470   47.9700   30.7880 N.ar   49  HIS49      -0.2267
     49  CD2       90.4160   48.5500   32.2320 C.ar   49  HIS49       0.1154
     50  CE1       92.2290   49.1970   31.1910 C.ar   49  HIS49       0.1986
     51  NE2       91.3090   49.5770   32.0570 N.ar   49  HIS49      -0.2212
     52  N         85.2290   48.9820   21.4310 N.3    67  GLN67      -0.1231
     53  CA        86.2090   49.8750   22.0370 C.3    67  GLN67       0.1698
     54  C         86.5750   49.3500   23.4250 C.2    67  GLN67       0.2592
     55  O         86.0650   49.8010   24.4520 O.2    67  GLN67      -0.2718
     56  CB        85.6800   51.3060   22.0530 C.3    67  GLN67       0.0381
     57  CG        85.3990   51.7730   20.6190 C.3    67  GLN67       0.0905
     58  CD        85.1200   53.2490   20.4540 C.2    67  GLN67       0.2608
     59  OE1       84.8120   53.6900   19.3310 O.2    67  GLN67      -0.2717
     60  NE2       85.2170   54.0120   21.5300 N.am   67  GLN67      -0.0878
     61  N         87.4360   48.3460   23.4070 N.am   68  VAL68      -0.1966
     62  CA        87.9190   47.6910   24.6180 C.3    68  VAL68       0.1727
     63  C         89.4310   47.5410   24.5590 C.2    68  VAL68       0.2616
     64  O         90.0270   47.5280   23.4850 O.2    68  VAL68      -0.2715
     65  CB        87.2790   46.2830   24.8080 C.3    68  VAL68       0.0290
     66  CG1       85.7620   46.3950   24.8470 C.3    68  VAL68       0.0023
     67  CG2       87.7170   45.2980   23.7400 C.3    68  VAL68       0.0023
     68  N         90.0360   47.4260   25.7310 N.am   69  ASN69      -0.1972
     69  CA        91.4150   46.9990   25.8880 C.3    69  ASN69       0.1688
     70  C         91.4300   45.4750   25.9620 C.2    69  ASN69       0.2292
     71  O         90.8530   44.8790   26.8900 O.2    69  ASN69      -0.2864
     72  CB        91.9580   47.6320   27.1850 C.3    69  ASN69       0.1181
     73  CG        93.4430   47.4090   27.4000 C.2    69  ASN69       0.2629
     74  OD1       93.8990   47.3160   28.5600 O.2    69  ASN69      -0.2716
     75  ND2       94.2120   47.3490   26.3200 N.am   69  ASN69      -0.0877
     76  N         96.7110   49.1620   34.1080 N.3    89  PHE89      -0.1241
     77  CA        96.0660   50.2150   33.3380 C.3    89  PHE89       0.1605
     78  C         95.0520   51.0560   34.1160 C.2    89  PHE89       0.2264
     79  O         94.5060   52.0260   33.5690 O.2    89  PHE89      -0.2867
     80  CB        95.3760   49.5930   32.1250 C.3    89  PHE89       0.0534
     81  CG        96.2660   48.6750   31.3360 C.ar   89  PHE89      -0.0203
     82  CD1       97.2460   49.1950   30.4950 C.ar   89  PHE89      -0.0042
     83  CD2       96.1370   47.3030   31.4390 C.ar   89  PHE89      -0.0042
     84  CE1       98.0740   48.3500   29.7760 C.ar   89  PHE89      -0.0003
     85  CE2       96.9570   46.4550   30.7290 C.ar   89  PHE89      -0.0003
     86  CZ        97.9290   46.9740   29.8930 C.ar   89  PHE89      -0.0000
     87  N         93.7960   53.8860   36.4350 N.3    91  LYS91      -0.1245
     88  CA        94.2080   55.1630   37.0040 C.3    91  LYS91       0.1561
     89  C         93.9800   55.1240   38.5140 C.2    91  LYS91       0.2260
     90  O         92.9770   54.5880   38.9900 O.2    91  LYS91      -0.2867
     91  CB        93.4340   56.3000   36.3620 C.3    91  LYS91       0.0271
     92  CG        93.7600   56.4900   34.8860 C.3    91  LYS91       0.0035
     93  CD        92.9850   57.6420   34.2770 C.3    91  LYS91       0.0206
     94  CE        93.2000   57.7140   32.7500 C.3    91  LYS91       0.1093
     95  NZ        92.6260   56.5470   31.9870 N.3    91  LYS91      -0.1314
@<TRIPOS>BOND
     1    59    58    2
     2    58    57    1
     3    58    60   am
     4    57    56    1
     5    52    53    1
     6    53    56    1
     7    53    54    1
     8    61    54   am
     9    61    62    1
    10    54    55    2
    11    64    63    2
    12    67    65    1
    13    10     8   ar
    14    10     9   ar
    15    63    62    1
    16    63    68   am
    17    62    65    1
    18     8     6   ar
    19     9     7   ar
    20    65    66    1
    21     7     6   ar
    22     6     5    1
    23    68    69    1
    24    69    70    1
    25    69    72    1
    26    70    71    2
    27    75    73   am
    28     5     2    1
    29    72    73    1
    30    73    74    2
    31    41    39    1
    32    37    36    2
    33     2     3    1
    34     2     1    1
    35    20    19    2
    36    32    31    2
    37     3     4    2
    38    38    39    1
    39    38    40    1
    40    38    35    1
    41    34    35    1
    42    34    28   am
    43    36    35    1
    44    36    42   am
    45    14    13    2
    46    19    18    1
    47    19    26   am
    48    27    28    1
    49    27    30    1
    50    27    26    1
    51    31    30    1
    52    31    33   am
    53    84    86   ar
    54    84    82   ar
    55    28    29    2
    56    44    43    1
    57    44    45    2
    58    22    23    1
    59    22    21    1
    60    86    85   ar
    61    18    21    1
    62    18    17    1
    63    43    42    1
    64    43    46    1
    65    25    23   ar
    66    13    17   am
    67    13    12    1
    68    82    81   ar
    69    23    24   ar
    70    85    83   ar
    71    48    50   ar
    72    48    47   ar
    73    15    12    1
    74    15    16    1
    75    11    12    1
    76    46    47    1
    77    50    51   ar
    78    81    83   ar
    79    81    80    1
    80    47    49   ar
    81    95    94    1
    82    51    49   ar
    83    80    77    1
    84    94    93    1
    85    77    76    1
    86    77    78    1
    87    79    78    2
    88    93    92    1
    89    92    91    1
    90    91    88    1
    91    87    88    1
    92    88    89    1
    93    89    90    2
