@<TRIPOS>MOLECULE
tmp/2vd6A00.pdb
 114 107 0 0 0
SMALL
GASTEIGER

@<TRIPOS>ATOM
      1  N         33.4910    5.3070   47.2870 N.3    77  GLU77      -0.1245
      2  CA        32.4040    5.6120   46.3560 C.3    77  GLU77       0.1567
      3  C         31.0390    5.6470   47.0460 C.2    77  GLU77       0.2260
      4  O         30.1890    6.4460   46.6720 O.2    77  GLU77      -0.2867
      5  CB        32.3590    4.6190   45.1900 C.3    77  GLU77       0.0388
      6  CG        31.3170    5.0000   44.1360 C.3    77  GLU77       0.1160
      7  CD        31.4030    4.1880   42.8580 C.2    77  GLU77       0.3649
      8  OE1       32.2280    3.2590   42.7760 O.co2  77  GLU77      -0.2457
      9  OE2       30.6360    4.4910   41.9270 O.co2  77  GLU77      -0.2457
     10  N         29.5610    9.0170   46.5710 N.3    81  ARG81      -0.1231
     11  CA        28.6450    8.7830   45.4440 C.3    81  ARG81       0.1694
     12  C         29.2410    9.2690   44.1170 C.2    81  ARG81       0.2592
     13  O         28.5270    9.7640   43.2400 O.2    81  ARG81      -0.2718
     14  CB        27.2830    9.4400   45.6910 C.3    81  ARG81       0.0321
     15  CG        26.5930    8.9590   46.9530 C.3    81  ARG81       0.0489
     16  CD        25.1750    9.4850   47.0310 C.3    81  ARG81       0.2205
     17  NE        24.4770    8.9550   48.1990 N.pl3  81  ARG81      -0.0865
     18  CZ        23.9490    7.7340   48.2870 C.cat  81  ARG81       0.5346
     19  NH1       24.0270    6.8720   47.2730 N.pl3  81  ARG81       0.1354
     20  NH2       23.3320    7.3700   49.4060 N.pl3  81  ARG81       0.1354
     21  N         30.5550    9.1090   43.9850 N.am   82  HIS82      -0.1962
     22  CA        31.2930    9.5890   42.8290 C.3    82  HIS82       0.1787
     23  C         32.4640    8.6440   42.5520 C.2    82  HIS82       0.2620
     24  O         33.4030    8.5650   43.3520 O.2    82  HIS82      -0.2715
     25  CB        31.7930   11.0130   43.0820 C.3    82  HIS82       0.0785
     26  CG        32.0940   11.7640   41.8260 C.ar   82  HIS82       0.0821
     27  ND1       33.1000   11.3900   40.9650 N.ar   82  HIS82      -0.2267
     28  CD2       31.5030   12.8480   41.2690 C.ar   82  HIS82       0.1154
     29  CE1       33.1270   12.2200   39.9390 C.ar   82  HIS82       0.1986
     30  NE2       32.1660   13.1110   40.0970 N.ar   82  HIS82      -0.2212
     31  N         32.4030    7.9160   41.4340 N.am   83  ASP83      -0.1957
     32  CA        33.3990    6.8680   41.1710 C.3    83  ASP83       0.1840
     33  C         34.8120    7.4150   40.9370 C.2    83  ASP83       0.2621
     34  O         35.7720    6.8830   41.4860 O.2    83  ASP83      -0.2715
     35  CB        32.9730    5.8960   40.0500 C.3    83  ASP83       0.1450
     36  CG        32.6240    6.5840   38.7300 C.2    83  ASP83       0.3671
     37  OD1       32.5880    7.8320   38.6540 O.co2  83  ASP83      -0.2456
     38  OD2       32.3690    5.8440   37.7610 O.co2  83  ASP83      -0.2456
     39  N         34.9370    8.4840   40.1580 N.am   84  VAL84      -0.1977
     40  CA        36.2630    9.0390   39.8420 C.3    84  VAL84       0.1596
     41  C         36.9510    9.5930   41.0830 C.2    84  VAL84       0.2287
     42  O         38.1120    9.2850   41.3450 O.2    84  VAL84      -0.2864
     43  CB        36.1970   10.1200   38.7420 C.3    84  VAL84       0.0276
     44  CG1       37.5650   10.7980   38.5670 C.3    84  VAL84       0.0022
     45  CG2       35.7360    9.5010   37.4290 C.3    84  VAL84       0.0022
     46  N         38.8660   17.2940   34.9350 N.3   107  THR107     -0.1203
     47  CA        37.5240   16.8560   35.3380 C.3   107  THR107      0.1994
     48  C         37.4990   15.3370   35.2230 C.2   107  THR107      0.2619
     49  O         38.4150   14.7460   34.6490 O.2   107  THR107     -0.2717
     50  CB        36.4250   17.4940   34.4590 C.3   107  THR107      0.1784
     51  OG1       36.6160   18.9100   34.4370 O.3   107  THR107     -0.2211
     52  CG2       35.0340   17.2170   34.9900 C.3   107  THR107      0.0376
     53  N         36.4670   14.7200   35.7960 N.am  108  SER108     -0.1937
     54  CA        36.3390   13.2690   35.8680 C.3   108  SER108      0.2055
     55  C         36.4850   12.5850   34.5120 C.2   108  SER108      0.2643
     56  O         37.1280   11.5360   34.4170 O.2   108  SER108     -0.2714
     57  CB        34.9860   12.8970   36.4790 C.3   108  SER108      0.2130
     58  OG        34.8710   13.4270   37.7850 O.3   108  SER108     -0.2179
     59  N         35.8930   13.1830   33.4770 N.am  109  CYS109     -0.1967
     60  CA        35.9740   12.6510   32.1120 C.3   109  CYS109      0.1712
     61  C         37.4080   12.5160   31.5620 C.2   109  CYS109      0.2296
     62  O         37.6350   11.6870   30.6840 O.2   109  CYS109     -0.2864
     63  CB        35.1230   13.4880   31.1480 C.3   109  CYS109      0.0983
     64  SG        33.3560   13.1540   31.2710 S.3   109  CYS109     -0.0798
     65  N         31.9500   18.7150   27.8540 N.3   237  GLN237     -0.1245
     66  CA        32.6090   17.9120   28.8760 C.3   237  GLN237      0.1566
     67  C         33.1010   16.5930   28.2830 C.2   237  GLN237      0.2260
     68  O         34.1640   16.1070   28.6410 O.2   237  GLN237     -0.2867
     69  CB        31.6730   17.6130   30.0490 C.3   237  GLN237      0.0367
     70  CG        32.3920   16.9530   31.2220 C.3   237  GLN237      0.0905
     71  CD        31.5530   16.9110   32.4670 C.2   237  GLN237      0.2608
     72  OE1       30.9060   15.9090   32.7420 O.2   237  GLN237     -0.2717
     73  NE2       31.5480   17.9970   33.2250 N.am  237  GLN237     -0.0878
     74  N         26.8820   18.2810   28.3840 N.3   316  ARG316     -0.1245
     75  CA        26.5790   16.8450   28.5840 C.3   316  ARG316      0.1563
     76  C         25.5820   16.6750   29.7210 C.2   316  ARG316      0.2260
     77  O         25.4410   17.5490   30.5740 O.2   316  ARG316     -0.2867
     78  CB        27.8070   15.9280   28.7960 C.3   316  ARG316      0.0307
     79  CG        28.4900   15.9760   30.1720 C.3   316  ARG316      0.0489
     80  CD        27.8520   15.0500   31.2150 C.3   316  ARG316      0.2205
     81  NE        27.9870   13.6080   30.9510 N.pl3 316  ARG316     -0.0865
     82  CZ        29.0120   12.8520   31.3610 C.cat 316  ARG316      0.5346
     83  NH1       30.0490   13.3880   31.9980 N.pl3 316  ARG316      0.1354
     84  NH2       29.0230   11.5490   31.1120 N.pl3 316  ARG316      0.1354
     85  N         24.2140   13.2680   32.4140 N.3   318  LEU318     -0.1245
     86  CA        24.7580   11.9840   32.8700 C.3   318  LEU318      0.1561
     87  C         23.8560   10.7940   32.5920 C.2   318  LEU318      0.2260
     88  O         24.1410    9.6850   33.0460 O.2   318  LEU318     -0.2867
     89  CB        25.1800   12.0260   34.3430 C.3   318  LEU318      0.0270
     90  CG        26.7040   12.1310   34.4280 C.3   318  LEU318      0.0019
     91  CD1       27.1030   13.5930   34.4210 C.3   318  LEU318      0.0001
     92  CD2       27.2450   11.4260   35.6400 C.3   318  LEU318      0.0001
     93  N         25.6650    7.6480   31.0920 N.3   321  SER321     -0.1202
     94  CA        26.7010    6.9180   31.8170 C.3   321  SER321      0.2020
     95  C         26.3670    5.4320   32.0030 C.2   321  SER321      0.2618
     96  O         27.1260    4.5630   31.5660 O.2   321  SER321     -0.2717
     97  CB        26.9740    7.5770   33.1690 C.3   321  SER321      0.2103
     98  OG        28.0560    6.9420   33.8240 O.3   321  SER321     -0.2182
     99  N         25.2290    5.1560   32.6350 N.am  322  ALA322     -0.1979
    100  CA        24.8140    3.7800   32.9340 C.3   322  ALA322      0.1597
    101  C         24.6010    2.9650   31.6670 C.2   322  ALA322      0.2287
    102  O         25.0480    1.8250   31.5870 O.2   322  ALA322     -0.2864
    103  CB        23.5480    3.7740   33.7820 C.3   322  ALA322      0.0319
    104  N         27.9630    1.8540   30.1650 N.3   325  ARG325     -0.1245
    105  CA        28.5880    0.7710   30.9310 C.3   325  ARG325      0.1563
    106  C         28.1140   -0.5940   30.4250 C.2   325  ARG325      0.2260
    107  O         28.8610   -1.5720   30.5000 O.2   325  ARG325     -0.2867
    108  CB        28.2370    0.8490   32.4150 C.3   325  ARG325      0.0307
    109  CG        28.7780    2.0210   33.1700 C.3   325  ARG325      0.0489
    110  CD        28.2620    1.9770   34.5940 C.3   325  ARG325      0.2205
    111  NE        28.5470    3.2120   35.3180 N.pl3 325  ARG325     -0.0865
    112  CZ        29.6540    3.4510   36.0160 C.cat 325  ARG325      0.5346
    113  NH1       30.6330    2.5580   36.0880 N.pl3 325  ARG325      0.1354
    114  NH2       29.7920    4.6110   36.6400 N.pl3 325  ARG325      0.1354
@<TRIPOS>BOND
     1    65    66    1
     2    67    68    2
     3    67    66    1
     4    74    75    1
     5    75    78    1
     6    75    76    1
     7    78    79    1
     8    66    69    1
     9    76    77    2
    10    69    70    1
    11   104   105    1
    12    79    80    1
    13   106   107    2
    14   106   105    1
    15    62    61    2
    16   105   108    1
    17    81    80    1
    18    81    82    2
    19    93    94    1
    20    84    82    1
    21    63    64    1
    22    63    60    1
    23    70    71    1
    24    82    83    1
    25    61    60    1
    26    96    95    2
    27   102   101    2
    28   101   100    1
    29    94    95    1
    30    94    97    1
    31    95    99   am
    32    60    59    1
    33    85    86    1
    34   108   109    1
    35    71    72    2
    36    71    73   am
    37    87    86    1
    38    87    88    2
    39    99   100    1
    40    86    89    1
    41   100   103    1
    42    97    98    1
    43   109   110    1
    44    59    55   am
    45    89    90    1
    46    56    55    2
    47    91    90    1
    48    90    92    1
    49    51    50    1
    50    50    52    1
    51    50    47    1
    52    55    54    1
    53   110   111    1
    54    49    48    2
    55    46    47    1
    56    48    47    1
    57    48    53   am
    58   111   112    2
    59    53    54    1
    60    54    57    1
    61   112   113    1
    62   112   114    1
    63    57    58    1
    64    45    43    1
    65    38    36   ar
    66    44    43    1
    67    37    36   ar
    68    36    35    1
    69    43    40    1
    70    40    39    1
    71    40    41    1
    72    29    30   ar
    73    29    27   ar
    74    35    32    1
    75    30    28   ar
    76    39    33   am
    77    33    32    1
    78    33    34    2
    79    27    26   ar
    80    41    42    2
    81    32    31    1
    82    28    26   ar
    83    31    23   am
    84    26    25    1
    85     9     7   ar
    86    23    22    1
    87    23    24    2
    88     8     7   ar
    89    22    25    1
    90    22    21    1
    91     7     6    1
    92    13    12    2
    93    21    12   am
    94    12    11    1
    95     6     5    1
    96     5     2    1
    97    11    14    1
    98    11    10    1
    99    14    15    1
   100     2     3    1
   101     2     1    1
   102     4     3    2
   103    15    16    1
   104    16    17    1
   105    19    18    1
   106    17    18    2
   107    18    20    1
