@<TRIPOS>MOLECULE
tmp/2vd7A00.pdb
 123 117 0 0 0
SMALL
GASTEIGER

@<TRIPOS>ATOM
      1  N         37.0810  -19.9960  -24.3890 N.3   127  TYR127     -0.1241
      2  CA        35.7190  -19.8100  -24.8790 C.3   127  TYR127      0.1605
      3  C         35.5480  -18.3220  -25.1480 C.2   127  TYR127      0.2264
      4  O         35.7240  -17.5210  -24.2350 O.2   127  TYR127     -0.2867
      5  CB        34.6880  -20.2860  -23.8290 C.3   127  TYR127      0.0534
      6  CG        33.2950  -20.6410  -24.3670 C.ar  127  TYR127     -0.0201
      7  CD1       33.0590  -20.7430  -25.7290 C.ar  127  TYR127     -0.0009
      8  CD2       32.2300  -20.8880  -23.5030 C.ar  127  TYR127     -0.0009
      9  CE1       31.8230  -21.0720  -26.2330 C.ar  127  TYR127      0.0417
     10  CE2       30.9650  -21.2410  -23.9990 C.ar  127  TYR127      0.0417
     11  CZ        30.7760  -21.3210  -25.3770 C.ar  127  TYR127      0.1957
     12  OH        29.5630  -21.6660  -25.9240 O.3   127  TYR127     -0.2866
     13  N         28.9020  -16.5080  -29.1690 N.3   172  TYR172     -0.1241
     14  CA        29.7590  -17.4250  -28.4290 C.3   172  TYR172      0.1605
     15  C         30.6470  -18.1250  -29.4340 C.2   172  TYR172      0.2264
     16  O         30.1520  -18.8870  -30.2730 O.2   172  TYR172     -0.2867
     17  CB        28.9290  -18.4980  -27.7300 C.3   172  TYR172      0.0534
     18  CG        27.9970  -18.0090  -26.6200 C.ar  172  TYR172     -0.0201
     19  CD1       26.6930  -17.5690  -26.8990 C.ar  172  TYR172     -0.0009
     20  CD2       28.4240  -18.0150  -25.2910 C.ar  172  TYR172     -0.0009
     21  CE1       25.8330  -17.1290  -25.8470 C.ar  172  TYR172      0.0417
     22  CE2       27.6000  -17.5810  -24.2520 C.ar  172  TYR172      0.0417
     23  CZ        26.3110  -17.1440  -24.5260 C.ar  172  TYR172      0.1957
     24  OH        25.5260  -16.7370  -23.4580 O.3   172  TYR172     -0.2866
     25  N         29.2950  -25.1830  -21.2730 N.3   180  PHE180     -0.1241
     26  CA        28.3400  -24.4770  -20.4360 C.3   180  PHE180      0.1605
     27  C         27.7760  -25.3560  -19.3510 C.2   180  PHE180      0.2264
     28  O         27.2170  -26.4360  -19.5960 O.2   180  PHE180     -0.2867
     29  CB        27.2450  -23.7300  -21.2220 C.3   180  PHE180      0.0534
     30  CG        26.5130  -24.5560  -22.2400 C.ar  180  PHE180     -0.0203
     31  CD1       25.1930  -24.9390  -22.0170 C.ar  180  PHE180     -0.0042
     32  CD2       27.1260  -24.8980  -23.4530 C.ar  180  PHE180     -0.0042
     33  CE1       24.4630  -25.6780  -22.9890 C.ar  180  PHE180     -0.0003
     34  CE2       26.4170  -25.6470  -24.4310 C.ar  180  PHE180     -0.0003
     35  CZ        25.0850  -26.0490  -24.1900 C.ar  180  PHE180     -0.0000
     36  N         22.5110  -24.8930  -15.7820 N.3   183  HIS183     -0.1241
     37  CA        21.8110  -23.6850  -15.3830 C.3   183  HIS183      0.1621
     38  C         20.3930  -23.6170  -15.9930 C.2   183  HIS183      0.2264
     39  O         20.1090  -24.2180  -17.0380 O.2   183  HIS183     -0.2867
     40  CB        22.6200  -22.4440  -15.8060 C.3   183  HIS183      0.0745
     41  CG        22.6440  -22.2460  -17.2760 C.ar  183  HIS183      0.0817
     42  ND1       23.4260  -23.0200  -18.1180 N.ar  183  HIS183     -0.2268
     43  CD2       21.9580  -21.3940  -18.0690 C.ar  183  HIS183      0.1154
     44  CE1       23.2180  -22.6560  -19.3660 C.ar  183  HIS183      0.1986
     45  NE2       22.3250  -21.6710  -19.3630 N.ar  183  HIS183     -0.2212
     46  N         17.8590  -20.2220  -17.2750 N.3   185  GLU185     -0.1245
     47  CA        18.0550  -18.8200  -17.6290 C.3   185  GLU185      0.1567
     48  C         17.8250  -17.8190  -16.4930 C.2   185  GLU185      0.2260
     49  O         17.1710  -18.1400  -15.5010 O.2   185  GLU185     -0.2867
     50  CB        17.1880  -18.4430  -18.8370 C.3   185  GLU185      0.0388
     51  CG        17.3580  -19.3760  -20.0110 C.3   185  GLU185      0.1160
     52  CD        18.7850  -19.4300  -20.4590 C.2   185  GLU185      0.3649
     53  OE1       19.3020  -18.3790  -20.8890 O.co2 185  GLU185     -0.2457
     54  OE2       19.3940  -20.5140  -20.3580 O.co2 185  GLU185     -0.2457
     55  N         15.0720  -19.2780  -23.7150 N.3   191  SER191     -0.1217
     56  CA        16.1760  -18.7600  -24.4980 C.3   191  SER191      0.1889
     57  C         16.1080  -19.3540  -25.8730 C.2   191  SER191      0.2288
     58  O         15.5160  -20.4080  -26.0530 O.2   191  SER191     -0.2866
     59  CB        17.5390  -19.0700  -23.8360 C.3   191  SER191      0.2089
     60  OG        17.7510  -20.4670  -23.8040 O.3   191  SER191     -0.2183
     61  N         18.8230  -20.2510  -29.1420 N.3   193  ASN193     -0.1240
     62  CA        20.2500  -20.4470  -29.4830 C.3   193  ASN193      0.1653
     63  C         20.3240  -20.8300  -30.9410 C.2   193  ASN193      0.2266
     64  O         19.6870  -21.7940  -31.3850 O.2   193  ASN193     -0.2867
     65  CB        20.9320  -21.5370  -28.6200 C.3   193  ASN193      0.1155
     66  CG        22.4940  -21.6200  -28.8240 C.2   193  ASN193      0.2627
     67  OD1       23.0060  -22.0400  -29.8880 O.2   193  ASN193     -0.2716
     68  ND2       23.2420  -21.2820  -27.7560 N.am  193  ASN193     -0.0877
     69  N         27.3500  -28.4130  -31.2250 N.3   201  LYS201     -0.1245
     70  CA        27.2600  -28.0810  -29.8230 C.3   201  LYS201      0.1561
     71  C         26.3060  -29.1400  -29.2490 C.2   201  LYS201      0.2260
     72  O         25.1870  -29.2600  -29.7600 O.2   201  LYS201     -0.2867
     73  CB        26.6690  -26.6780  -29.6770 C.3   201  LYS201      0.0271
     74  CG        26.6000  -26.1580  -28.2080 C.3   201  LYS201      0.0035
     75  CD        25.8740  -24.8110  -28.1070 C.3   201  LYS201      0.0206
     76  CE        26.6300  -23.7060  -28.8410 C.3   201  LYS201      0.1093
     77  NZ        27.7710  -23.1290  -28.0140 N.3   201  LYS201     -0.1314
     78  N         24.0830  -30.8520  -26.0450 N.3   203  TRP203     -0.1241
     79  CA        23.2220  -30.3100  -25.0170 C.3   203  TRP203      0.1605
     80  C         22.7540  -31.4700  -24.1480 C.2   203  TRP203      0.2264
     81  O         22.5120  -32.5330  -24.6490 O.2   203  TRP203     -0.2867
     82  CB        21.9850  -29.6580  -25.6640 C.3   203  TRP203      0.0550
     83  CG        22.2350  -28.3890  -26.3990 C.ar  203  TRP203      0.0003
     84  CD1       22.8600  -28.2530  -27.6140 C.ar  203  TRP203      0.0946
     85  CD2       21.8640  -27.0640  -25.9910 C.ar  203  TRP203      0.0152
     86  NE1       22.9250  -26.9420  -27.9620 N.ar  203  TRP203     -0.2442
     87  CE2       22.3140  -26.1840  -26.9990 C.ar  203  TRP203      0.0810
     88  CE3       21.2060  -26.5320  -24.8630 C.ar  203  TRP203      0.0012
     89  CZ2       22.1310  -24.7910  -26.9240 C.ar  203  TRP203      0.0191
     90  CZ3       20.9910  -25.1410  -24.7940 C.ar  203  TRP203      0.0001
     91  CH2       21.4730  -24.2840  -25.8090 C.ar  203  TRP203      0.0015
     92  N         26.8480  -20.6210  -13.0680 N.3   236  LYS236     -0.1245
     93  CA        27.2760  -21.3860  -14.2430 C.3   236  LYS236      0.1561
     94  C         28.7070  -21.9370  -14.1190 C.2   236  LYS236      0.2260
     95  O         29.4940  -21.8920  -15.0700 O.2   236  LYS236     -0.2867
     96  CB        27.0830  -20.5730  -15.5290 C.3   236  LYS236      0.0271
     97  CG        25.6400  -20.2710  -15.8430 C.3   236  LYS236      0.0035
     98  CD        25.4990  -19.3370  -17.0810 C.3   236  LYS236      0.0206
     99  CE        24.0700  -18.6750  -17.0860 C.3   236  LYS236      0.1093
    100  NZ        23.7420  -17.8490  -18.3340 N.3   236  LYS236     -0.1314
    101  N         15.1780  -23.2410  -25.1950 N.3   265  THR265     -0.1218
    102  CA        15.0440  -23.6940  -23.8140 C.3   265  THR265      0.1862
    103  C         13.8340  -23.0250  -23.1960 C.2   265  THR265      0.2287
    104  O         13.4730  -21.8990  -23.5480 O.2   265  THR265     -0.2866
    105  CB        16.3210  -23.4910  -22.9050 C.3   265  THR265      0.1770
    106  OG1       16.3310  -22.1790  -22.3590 O.3   265  THR265     -0.2211
    107  CG2       17.6240  -23.7220  -23.6680 C.3   265  THR265      0.0375
    108  N         19.7960  -26.8570  -18.3670 N.3   271  HIS271     -0.1241
    109  CA        20.5860  -27.3870  -19.4820 C.3   271  HIS271      0.1621
    110  C         22.0960  -27.1800  -19.2550 C.2   271  HIS271      0.2264
    111  O         22.5080  -26.3340  -18.4580 O.2   271  HIS271     -0.2867
    112  CB        20.0980  -26.8320  -20.8380 C.3   271  HIS271      0.0745
    113  CG        20.0520  -25.3350  -20.8920 C.ar  271  HIS271      0.0817
    114  ND1       19.0510  -24.6010  -20.2870 N.ar  271  HIS271     -0.2268
    115  CD2       20.8990  -24.4330  -21.4470 C.ar  271  HIS271      0.1154
    116  CE1       19.2840  -23.3070  -20.4580 C.ar  271  HIS271      0.1986
    117  NE2       20.4020  -23.1770  -21.1590 N.ar  271  HIS271     -0.2212
    118  N         22.6820  -16.1020  -29.0650 N.3   283  SER283     -0.1217
    119  CA        21.4710  -16.3130  -28.2840 C.3   283  SER283      0.1889
    120  C         20.9540  -15.1050  -27.5440 C.2   283  SER283      0.2288
    121  O         21.6090  -14.0440  -27.4980 O.2   283  SER283     -0.2866
    122  CB        21.5930  -17.5070  -27.3440 C.3   283  SER283      0.2089
    123  OG        22.6950  -17.3880  -26.5160 O.3   283  SER283     -0.2183
@<TRIPOS>BOND
     1    64    63    2
     2    69    70    1
     3    63    62    1
     4    16    15    2
     5    67    66    2
     6    70    73    1
     7    70    71    1
     8    72    71    2
     9    73    74    1
    10    62    61    1
    11    62    65    1
    12    15    14    1
    13    13    14    1
    14   118   119    1
    15    76    75    1
    16    76    77    1
    17    66    65    1
    18    66    68   am
    19    14    17    1
    20   119   120    1
    21   119   122    1
    22    74    75    1
    23    86    84   ar
    24    86    87   ar
    25    17    18    1
    26    84    83   ar
    27   120   121    2
    28   122   123    1
    29    87    89   ar
    30    87    85   ar
    31    89    91   ar
    32    19    18   ar
    33    19    21   ar
    34    18    20   ar
    35    83    85   ar
    36    83    82    1
    37     9     7   ar
    38     9    11   ar
    39    58    57    2
    40    78    79    1
    41    85    88   ar
    42    12    11    1
    43    57    56    1
    44    21    23   ar
    45    91    90   ar
    46     7     6   ar
    47    82    79    1
    48    11    10   ar
    49    20    22   ar
    50   101   102    1
    51     3     2    1
    52     3     4    2
    53    79    80    1
    54     2     1    1
    55     2     5    1
    56    88    90   ar
    57    81    80    2
    58    23    22   ar
    59    23    24    1
    60    56    59    1
    61    56    55    1
    62    34    35   ar
    63    34    32   ar
    64     6     5    1
    65     6     8   ar
    66    35    33   ar
    67    10     8   ar
    68    59    60    1
    69   102   103    1
    70   102   105    1
    71   107   105    1
    72   104   103    2
    73    32    30   ar
    74    33    31   ar
    75   105   106    1
    76    30    31   ar
    77    30    29    1
    78   115   117   ar
    79   115   113   ar
    80    25    26    1
    81    29    26    1
    82   117   116   ar
    83   113   112    1
    84   113   114   ar
    85    53    52   ar
    86   112   109    1
    87    52    54   ar
    88    52    51    1
    89   116   114   ar
    90    26    27    1
    91    51    50    1
    92    28    27    2
    93   109   110    1
    94   109   108    1
    95    44    45   ar
    96    44    42   ar
    97    45    43   ar
    98   110   111    2
    99    50    47    1
   100   100    99    1
   101    42    41   ar
   102    43    41   ar
   103    47    46    1
   104    47    48    1
   105    41    40    1
   106    99    98    1
   107    98    97    1
   108    39    38    2
   109    48    49    2
   110    38    37    1
   111    97    96    1
   112    40    37    1
   113    36    37    1
   114    96    93    1
   115    95    94    2
   116    93    94    1
   117    93    92    1
