@<TRIPOS>MOLECULE
tmp/2vd8A00.pdb
 138 130 0 0 0
SMALL
GASTEIGER

@<TRIPOS>ATOM
      1  N        -11.1780    8.7210  -55.5850 N.3    36  VAL36      -0.1245
      2  CA       -10.0700    8.7970  -54.6360 C.3    36  VAL36       0.1561
      3  C        -10.6000    8.6120  -53.2160 C.2    36  VAL36       0.2260
      4  O        -11.3440    9.4630  -52.7210 O.2    36  VAL36      -0.2867
      5  CB        -9.3430   10.1290  -54.7340 C.3    36  VAL36       0.0252
      6  CG1       -8.1950   10.1680  -53.7460 C.3    36  VAL36       0.0019
      7  CG2       -8.8230   10.3380  -56.1750 C.3    36  VAL36       0.0019
      8  N         -8.5640    7.7120  -50.4370 N.3    38  LYS38      -0.1245
      9  CA        -7.5420    7.8490  -49.3980 C.3    38  LYS38       0.1561
     10  C         -8.1420    8.4800  -48.1370 C.2    38  LYS38       0.2260
     11  O         -9.1980    9.1450  -48.1830 O.2    38  LYS38      -0.2867
     12  CB        -6.3560    8.6630  -49.9000 C.3    38  LYS38       0.0271
     13  CG        -6.6910   10.0890  -50.1810 C.3    38  LYS38       0.0035
     14  CD        -5.6220   10.8090  -51.0240 C.3    38  LYS38       0.0206
     15  CE        -6.1350   12.2170  -51.3880 C.3    38  LYS38       0.1093
     16  NZ        -5.1580   13.1640  -52.0070 N.3    38  LYS38      -0.1314
     17  N        -11.9180   10.0330  -47.1740 N.3    42  TYR42      -0.1241
     18  CA       -12.1170   11.4020  -46.6540 C.3    42  TYR42       0.1605
     19  C        -13.1250   11.3820  -45.4950 C.2    42  TYR42       0.2264
     20  O        -13.9980   12.2630  -45.3720 O.2    42  TYR42      -0.2867
     21  CB       -12.6180   12.3560  -47.7360 C.3    42  TYR42       0.0534
     22  CG       -11.6210   12.7250  -48.8340 C.ar   42  TYR42      -0.0201
     23  CD1      -10.8120   11.7700  -49.4590 C.ar   42  TYR42      -0.0009
     24  CD2      -11.5580   14.0250  -49.3290 C.ar   42  TYR42      -0.0009
     25  CE1       -9.9430   12.1250  -50.5120 C.ar   42  TYR42       0.0417
     26  CE2      -10.6900   14.3910  -50.3750 C.ar   42  TYR42       0.0417
     27  CZ        -9.8860   13.4460  -50.9680 C.ar   42  TYR42       0.1957
     28  OH        -9.0440   13.8280  -51.9810 O.3    42  TYR42      -0.2866
     29  N         -1.3160    6.3930  -54.5530 N.3    83  LEU83      -0.1245
     30  CA        -0.8610    7.7240  -54.9830 C.3    83  LEU83       0.1561
     31  C          0.3650    8.2080  -54.2260 C.2    83  LEU83       0.2260
     32  O          1.2050    8.9250  -54.7780 O.2    83  LEU83      -0.2867
     33  CB        -1.9710    8.7590  -54.8240 C.3    83  LEU83       0.0270
     34  CG        -3.1910    8.5750  -55.7210 C.3    83  LEU83       0.0019
     35  CD1       -4.3360    9.4860  -55.2710 C.3    83  LEU83       0.0001
     36  CD2       -2.8210    8.8140  -57.1810 C.3    83  LEU83       0.0001
     37  N          4.8450    9.1410  -61.4610 N.3   124  ASN124     -0.1240
     38  CA         4.4090   10.4700  -61.0470 C.3   124  ASN124      0.1653
     39  C          5.4730   11.4240  -61.5470 C.2   124  ASN124      0.2266
     40  O          6.6550   11.2490  -61.2220 O.2   124  ASN124     -0.2867
     41  CB         4.2790   10.5270  -59.5220 C.3   124  ASN124      0.1155
     42  CG         3.8530   11.8720  -59.0080 C.2   124  ASN124      0.2627
     43  OD1        4.2350   12.9170  -59.5580 O.2   124  ASN124     -0.2716
     44  ND2        3.0720   11.8690  -57.9150 N.am  124  ASN124     -0.0877
     45  N          6.0470   17.5290  -54.2080 N.3   131  ARG131     -0.1245
     46  CA         5.7980   16.5100  -53.1810 C.3   131  ARG131      0.1563
     47  C          6.5710   15.2290  -53.4930 C.2   131  ARG131      0.2260
     48  O          7.6360   14.9850  -52.9110 O.2   131  ARG131     -0.2867
     49  CB         4.2850   16.2820  -53.0320 C.3   131  ARG131      0.0307
     50  CG         3.8520   15.2340  -52.0240 C.3   131  ARG131      0.0489
     51  CD         2.3730   15.3560  -51.7070 C.3   131  ARG131      0.2205
     52  NE         1.4960   15.0950  -52.8500 N.pl3 131  ARG131     -0.0865
     53  CZ         0.1660   15.0300  -52.7620 C.cat 131  ARG131      0.5346
     54  NH1       -0.4450   15.1910  -51.5880 N.pl3 131  ARG131      0.1354
     55  NH2       -0.5670   14.8090  -53.8530 N.pl3 131  ARG131      0.1354
     56  N          1.2380   10.3400  -64.5450 N.3   156  TYR156     -0.1241
     57  CA         0.3960   11.3740  -63.9830 C.3   156  TYR156      0.1605
     58  C          1.1740   12.5100  -63.3890 C.2   156  TYR156      0.2264
     59  O          2.3600   12.3930  -63.1090 O.2   156  TYR156     -0.2867
     60  CB        -0.5990   10.7640  -62.9770 C.3   156  TYR156      0.0534
     61  CG        -0.0720   10.4300  -61.6010 C.ar  156  TYR156     -0.0201
     62  CD1        0.5060    9.1850  -61.3240 C.ar  156  TYR156     -0.0009
     63  CD2       -0.2180   11.3370  -60.5490 C.ar  156  TYR156     -0.0009
     64  CE1        0.9430    8.8770  -60.0490 C.ar  156  TYR156      0.0417
     65  CE2        0.2230   11.0370  -59.2780 C.ar  156  TYR156      0.0417
     66  CZ         0.8010    9.7950  -59.0240 C.ar  156  TYR156      0.1957
     67  OH         1.2760    9.4860  -57.7510 O.3   156  TYR156     -0.2866
     68  N          0.0630   16.2010  -60.6810 N.3   158  HIS158     -0.1241
     69  CA        -0.9130   16.7500  -59.7540 C.3   158  HIS158      0.1621
     70  C         -0.7040   18.2590  -59.6710 C.2   158  HIS158      0.2264
     71  O          0.4320   18.7380  -59.6360 O.2   158  HIS158     -0.2867
     72  CB        -0.7270   16.1290  -58.3670 C.3   158  HIS158      0.0745
     73  CG        -1.8380   16.4110  -57.3970 C.ar  158  HIS158      0.0817
     74  ND1       -3.1500   16.0400  -57.6260 N.ar  158  HIS158     -0.2268
     75  CD2       -1.8210   17.0070  -56.1800 C.ar  158  HIS158      0.1154
     76  CE1       -3.8900   16.3980  -56.5850 C.ar  158  HIS158      0.1986
     77  NE2       -3.1100   17.0020  -55.7030 N.ar  158  HIS158     -0.2212
     78  N         -7.3300   16.7990  -60.5510 N.3   195  ASN195     -0.1225
     79  CA        -8.0970   16.6170  -59.3250 C.3   195  ASN195      0.1785
     80  C         -9.5070   17.2130  -59.4930 C.2   195  ASN195      0.2598
     81  O         -9.9070   17.5400  -60.6020 O.2   195  ASN195     -0.2718
     82  CB        -7.3580   17.2350  -58.1230 C.3   195  ASN195      0.1169
     83  CG        -7.0240   18.7020  -58.3270 C.2   195  ASN195      0.2627
     84  OD1       -7.4310   19.3030  -59.3310 O.2   195  ASN195     -0.2716
     85  ND2       -6.2440   19.2750  -57.3970 N.am  195  ASN195     -0.0877
     86  N        -10.2840   17.3050  -58.4110 N.am  196  SER196     -0.1938
     87  CA       -11.6370   17.8740  -58.5320 C.3   196  SER196      0.2055
     88  C        -11.6270   19.2800  -59.1330 C.2   196  SER196      0.2642
     89  O        -12.3890   19.5680  -60.0610 O.2   196  SER196     -0.2714
     90  CB       -12.3240   17.9400  -57.1770 C.3   196  SER196      0.2130
     91  OG       -12.5690   16.6590  -56.6440 O.3   196  SER196     -0.2179
     92  N        -10.7710   20.1390  -58.5990 N.am  197  ALA197     -0.1977
     93  CA       -10.7590   21.5340  -59.0090 C.3   197  ALA197      0.1597
     94  C        -10.4130   21.6470  -60.5050 C.2   197  ALA197      0.2287
     95  O        -11.1150   22.3180  -61.2780 O.2   197  ALA197     -0.2864
     96  CB        -9.7770   22.3040  -58.1810 C.3   197  ALA197      0.0319
     97  N         -8.9260   12.2700  -61.4230 N.3   211  ARG211     -0.1245
     98  CA        -8.8270   11.7070  -60.0730 C.3   211  ARG211      0.1563
     99  C         -9.6670   12.5770  -59.1300 C.2   211  ARG211      0.2260
    100  O         -9.2760   13.6780  -58.7580 O.2   211  ARG211     -0.2867
    101  CB        -7.3800   11.7020  -59.5850 C.3   211  ARG211      0.0307
    102  CG        -6.4160   10.8770  -60.4180 C.3   211  ARG211      0.0489
    103  CD        -5.0350   10.7040  -59.7760 C.3   211  ARG211      0.2205
    104  NE        -4.4310   11.9940  -59.4590 N.pl3 211  ARG211     -0.0865
    105  CZ        -3.8190   12.7850  -60.3380 C.cat 211  ARG211      0.5346
    106  NH1       -3.6590   12.4150  -61.5950 N.pl3 211  ARG211      0.1354
    107  NH2       -3.3680   13.9550  -59.9330 N.pl3 211  ARG211      0.1354
    108  N        -11.5730   13.3810  -55.6620 N.3   213  GLY213     -0.1210
    109  CA       -11.7780   13.2170  -54.2280 C.3   213  GLY213      0.1956
    110  C        -12.9050   14.1230  -53.7870 C.2   213  GLY213      0.2611
    111  O        -14.0770   13.7310  -53.8230 O.2   213  GLY213     -0.2717
    112  N        -12.5530   15.3390  -53.3780 N.am  214  ILE214     -0.1979
    113  CA       -13.4680   16.2380  -52.6610 C.3   214  ILE214      0.1595
    114  C        -14.8440   16.4290  -53.3470 C.2   214  ILE214      0.2287
    115  O        -15.8970   16.3860  -52.6760 O.2   214  ILE214     -0.2864
    116  CB       -12.7600   17.5920  -52.3200 C.3   214  ILE214      0.0276
    117  CG1      -13.4770   18.3290  -51.1850 C.3   214  ILE214      0.0022
    118  CG2      -12.6200   18.4840  -53.5300 C.3   214  ILE214      0.0022
    119  CD1      -13.3180   17.6560  -49.8230 C.3   214  ILE214      0.0001
    120  N        -13.5850   22.2320  -53.6600 N.3   221  PRO221     -0.2116
    121  CA       -12.1460   22.2400  -53.3750 C.3   221  PRO221      0.1372
    122  C        -11.6660   23.4660  -52.5940 C.2   221  PRO221      0.2244
    123  O        -10.7490   23.3700  -51.7850 O.2   221  PRO221     -0.2868
    124  CB       -11.5080   22.1760  -54.7710 C.3   221  PRO221      0.0268
    125  CG       -12.5160   21.4800  -55.5900 C.3   221  PRO221      0.0207
    126  CD       -13.8640   21.9270  -55.0780 C.3   221  PRO221      0.0892
    127  N        -11.3230   19.4960  -46.1780 N.3   340  TYR340     -0.1241
    128  CA       -10.6640   18.1970  -46.3010 C.3   340  TYR340      0.1605
    129  C        -10.2340   17.6780  -44.9320 C.2   340  TYR340      0.2264
    130  O        -10.3360   16.4890  -44.6460 O.2   340  TYR340     -0.2867
    131  CB        -9.3730   18.2930  -47.1130 C.3   340  TYR340      0.0534
    132  CG        -9.4810   18.6250  -48.5850 C.ar  340  TYR340     -0.0201
    133  CD1       -9.7260   19.9260  -49.0100 C.ar  340  TYR340     -0.0009
    134  CD2       -9.2500   17.6680  -49.5490 C.ar  340  TYR340     -0.0009
    135  CE1       -9.7940   20.2360  -50.3270 C.ar  340  TYR340      0.0417
    136  CE2       -9.2920   17.9750  -50.8920 C.ar  340  TYR340      0.0417
    137  CZ        -9.5740   19.2670  -51.2740 C.ar  340  TYR340      0.1957
    138  OH        -9.6180   19.5610  -52.6280 O.3   340  TYR340     -0.2866
@<TRIPOS>BOND
     1    56    57    1
     2    57    58    1
     3    57    60    1
     4    58    59    2
     5    60    61    1
     6    61    62   ar
     7    61    63   ar
     8   106   105    1
     9    39    40    2
    10    39    38    1
    11    37    38    1
    12    97    98    1
    13    62    64   ar
    14    95    94    2
    15    38    41    1
    16    68    69    1
    17    81    80    2
    18    78    79    1
    19    63    65   ar
    20    94    93    1
    21   102   103    1
    22   102   101    1
    23   105   107    1
    24   105   104    2
    25    98   101    1
    26    98    99    1
    27    89    88    2
    28    64    66   ar
    29   103   104    1
    30    69    70    1
    31    69    72    1
    32    70    71    2
    33    43    42    2
    34    41    42    1
    35    80    79    1
    36    80    86   am
    37    84    83    2
    38    79    82    1
    39    65    66   ar
    40    88    92   am
    41    88    87    1
    42    99   100    2
    43    66    67    1
    44    93    92    1
    45    93    96    1
    46    42    44   am
    47    87    86    1
    48    87    90    1
    49    72    73    1
    50    83    82    1
    51    83    85   am
    52    74    73   ar
    53    74    76   ar
    54    73    75   ar
    55    36    34    1
    56    90    91    1
    57    76    77   ar
    58    75    77   ar
    59     7     5    1
    60    34    35    1
    61    34    33    1
    62   108   109    1
    63   125   126    1
    64   125   124    1
    65     1     2    1
    66   126   120    1
    67    30    33    1
    68    30    29    1
    69    30    31    1
    70    32    31    2
    71   124   121    1
    72     5     2    1
    73     5     6    1
    74     2     3    1
    75   109   110    1
    76    45    46    1
    77    55    53    1
    78   111   110    2
    79   110   112   am
    80   120   121    1
    81   118   116    1
    82    47    46    1
    83    47    48    2
    84   112   113    1
    85   121   122    1
    86   114   115    2
    87   114   113    1
    88     3     4    2
    89    46    49    1
    90    49    50    1
    91    52    53    2
    92    52    51    1
    93    53    54    1
    94   113   116    1
    95   138   137    1
    96   122   123    2
    97   116   117    1
    98    50    51    1
    99    16    15    1
   100    28    27    1
   101    15    14    1
   102   137   136   ar
   103   137   135   ar
   104   117   119    1
   105    14    13    1
   106    27    25   ar
   107    27    26   ar
   108   136   134   ar
   109    25    23   ar
   110     8     9    1
   111    26    24   ar
   112   135   133   ar
   113    13    12    1
   114    12     9    1
   115   134   132   ar
   116    23    22   ar
   117     9    10    1
   118    24    22   ar
   119   133   132   ar
   120    22    21    1
   121   132   131    1
   122    11    10    2
   123    21    18    1
   124    17    18    1
   125   131   128    1
   126    18    19    1
   127   128   127    1
   128   128   129    1
   129    19    20    2
   130   129   130    2
