@<TRIPOS>MOLECULE
tmp/2vd9B02.pdb
 146 137 0 0 0
SMALL
GASTEIGER

@<TRIPOS>ATOM
      1  N         -3.4680    9.3690  -16.1720 N.3    35  VAL35      -0.1245
      2  CA        -4.5100    9.8680  -17.0740 C.3    35  VAL35       0.1561
      3  C         -4.0570    9.6880  -18.5260 C.2    35  VAL35       0.2260
      4  O         -3.1800   10.3990  -18.9900 O.2    35  VAL35      -0.2867
      5  CB        -4.8510   11.3490  -16.7830 C.3    35  VAL35       0.0252
      6  CG1       -5.9840   11.8370  -17.6910 C.3    35  VAL35       0.0019
      7  CG2       -5.2230   11.5380  -15.3060 C.3    35  VAL35       0.0019
      8  N         -6.2420    9.4020  -21.4020 N.3    37  LYS37      -0.1245
      9  CA        -7.2120    9.7650  -22.4270 C.3    37  LYS37       0.1561
     10  C         -6.5540   10.5330  -23.5650 C.2    37  LYS37       0.2260
     11  O         -5.4280   11.0120  -23.4350 O.2    37  LYS37      -0.2867
     12  CB        -8.3340   10.6050  -21.8360 C.3    37  LYS37       0.0271
     13  CG        -7.9050   11.9610  -21.3580 C.3    37  LYS37       0.0035
     14  CD        -8.7500   12.3610  -20.1930 C.3    37  LYS37       0.0206
     15  CE        -8.3550   13.6970  -19.6650 C.3    37  LYS37       0.1093
     16  NZ        -8.7890   14.7430  -20.6040 N.3    37  LYS37      -0.1314
     17  N         -2.5890   11.4220  -24.4310 N.3    41  TYR41      -0.1241
     18  CA        -2.1190   12.7580  -24.8370 C.3    41  TYR41       0.1605
     19  C         -1.1800   12.6330  -26.0470 C.2    41  TYR41       0.2264
     20  O         -0.1510   13.3040  -26.1180 O.2    41  TYR41      -0.2867
     21  CB        -1.3970   13.4780  -23.6870 C.3    41  TYR41       0.0534
     22  CG        -2.2310   13.9250  -22.5000 C.ar   41  TYR41      -0.0201
     23  CD1       -3.2360   13.1210  -21.9680 C.ar   41  TYR41      -0.0009
     24  CD2       -1.9590   15.1420  -21.8630 C.ar   41  TYR41      -0.0009
     25  CE1       -3.9750   13.5160  -20.8640 C.ar   41  TYR41       0.0417
     26  CE2       -2.6960   15.5520  -20.7540 C.ar   41  TYR41       0.0417
     27  CZ        -3.7070   14.7300  -20.2590 C.ar   41  TYR41       0.1957
     28  OH        -4.4400   15.1080  -19.1620 O.3    41  TYR41      -0.2866
     29  N        -13.6360    9.5710  -17.0580 N.3    82  LEU82      -0.1245
     30  CA       -13.7410   10.9050  -16.4470 C.3    82  LEU82       0.1561
     31  C        -14.8200   11.7800  -17.1030 C.2    82  LEU82       0.2260
     32  O        -15.4100   12.6390  -16.4490 O.2    82  LEU82      -0.2867
     33  CB       -12.3790   11.6110  -16.5110 C.3    82  LEU82       0.0270
     34  CG       -11.2780   11.0010  -15.6410 C.3    82  LEU82       0.0019
     35  CD1       -9.9120   11.6180  -15.9710 C.3    82  LEU82       0.0001
     36  CD2      -11.6310   11.1630  -14.1540 C.3    82  LEU82       0.0001
     37  N        -18.8730   12.7960   -9.6780 N.3   123  ASN123     -0.1240
     38  CA       -18.2110   14.0460   -9.9900 C.3   123  ASN123      0.1653
     39  C        -18.9840   15.1890   -9.3280 C.2   123  ASN123      0.2266
     40  O        -20.1820   15.3550   -9.5660 O.2   123  ASN123     -0.2867
     41  CB       -18.1510   14.2290  -11.5100 C.3   123  ASN123      0.1155
     42  CG       -17.3630   15.4610  -11.9310 C.2   123  ASN123      0.2627
     43  OD1      -17.4530   16.5200  -11.3120 O.2   123  ASN123     -0.2716
     44  ND2      -16.6020   15.3270  -13.0040 N.am  123  ASN123     -0.0877
     45  N        -15.6120   24.1840  -12.1690 N.3   128  MET128     -0.1245
     46  CA       -15.1810   23.9400  -13.5530 C.3   128  MET128      0.1570
     47  C        -16.3380   24.1730  -14.5570 C.2   128  MET128      0.2261
     48  O        -16.0990   24.4930  -15.7150 O.2   128  MET128     -0.2867
     49  CB       -14.5960   22.5280  -13.6620 C.3   128  MET128      0.0387
     50  CG       -14.0930   22.1200  -15.0410 C.3   128  MET128      0.0595
     51  SD       -12.6310   22.9790  -15.6250 S.3   128  MET128     -0.1393
     52  CE       -12.4600   22.2360  -17.2560 C.3   128  MET128      0.0692
     53  N        -18.3350   22.1410  -16.0750 N.3   130  ARG130     -0.1245
     54  CA       -18.3680   21.1730  -17.1690 C.3   130  ARG130      0.1563
     55  C        -19.3880   20.0630  -16.8970 C.2   130  ARG130      0.2260
     56  O        -20.4920   20.0940  -17.4330 O.2   130  ARG130     -0.2867
     57  CB       -16.9550   20.6140  -17.4060 C.3   130  ARG130      0.0307
     58  CG       -16.8630   19.5060  -18.4450 C.3   130  ARG130      0.0489
     59  CD       -15.4090   19.2580  -18.8960 C.3   130  ARG130      0.2205
     60  NE       -14.5210   18.9070  -17.7870 N.pl3 130  ARG130     -0.0865
     61  CZ       -13.2340   18.5880  -17.9140 C.cat 130  ARG130      0.5346
     62  NH1      -12.6690   18.5630  -19.1050 N.pl3 130  ARG130      0.1354
     63  NH2      -12.5040   18.2950  -16.8430 N.pl3 130  ARG130      0.1354
     64  N        -15.0710   12.7520   -6.6490 N.3   155  TYR155     -0.1241
     65  CA       -14.0550   13.7100   -7.0610 C.3   155  TYR155      0.1605
     66  C        -14.5890   15.0430   -7.5360 C.2   155  TYR155      0.2264
     67  O        -15.7840   15.2090   -7.7710 O.2   155  TYR155     -0.2867
     68  CB       -13.1610   13.0990   -8.1480 C.3   155  TYR155      0.0534
     69  CG       -13.7520   12.9940   -9.5400 C.ar  155  TYR155     -0.0201
     70  CD1      -14.5480   11.9040   -9.9100 C.ar  155  TYR155     -0.0009
     71  CD2      -13.4620   13.9520  -10.5050 C.ar  155  TYR155     -0.0009
     72  CE1      -15.0680   11.7990  -11.1960 C.ar  155  TYR155      0.0417
     73  CE2      -13.9710   13.8570  -11.7930 C.ar  155  TYR155      0.0417
     74  CZ       -14.7750   12.7820  -12.1340 C.ar  155  TYR155      0.1957
     75  OH       -15.2710   12.7070  -13.4110 O.3   155  TYR155     -0.2866
     76  N        -12.6730   18.6550   -9.9320 N.3   157  HIS157     -0.1241
     77  CA       -11.5980   19.0430  -10.8410 C.3   157  HIS157      0.1621
     78  C        -11.4340   20.5580  -10.7900 C.2   157  HIS157      0.2264
     79  O        -12.4260   21.2870  -10.7450 O.2   157  HIS157     -0.2867
     80  CB       -11.9290   18.5810  -12.2670 C.3   157  HIS157      0.0745
     81  CG       -10.7960   18.7330  -13.2410 C.ar  157  HIS157      0.0817
     82  ND1       -9.6050   18.0500  -13.1120 N.ar  157  HIS157     -0.2268
     83  CD2      -10.6840   19.4670  -14.3740 C.ar  157  HIS157      0.1154
     84  CE1       -8.8040   18.3680  -14.1130 C.ar  157  HIS157      0.1986
     85  NE2       -9.4340   19.2270  -14.8920 N.ar  157  HIS157     -0.2212
     86  N         -5.2530   17.5790  -10.2770 N.3   194  ASN194     -0.1225
     87  CA        -4.5470   17.3860  -11.5370 C.3   194  ASN194      0.1785
     88  C         -3.0390   17.6120  -11.3180 C.2   194  ASN194      0.2598
     89  O         -2.6050   17.8030  -10.1790 O.2   194  ASN194     -0.2718
     90  CB        -5.1210   18.3170  -12.6310 C.3   194  ASN194      0.1169
     91  CG        -5.0980   19.7880  -12.2380 C.2   194  ASN194      0.2627
     92  OD1       -4.5510   20.1560  -11.2040 O.2   194  ASN194     -0.2716
     93  ND2       -5.7120   20.6310  -13.0590 N.am  194  ASN194     -0.0877
     94  N         -2.2510   17.5980  -12.3930 N.am  195  SER195     -0.1938
     95  CA        -0.8040   17.8110  -12.2890 C.3   195  SER195      0.2055
     96  C         -0.4640   19.1040  -11.5250 C.2   195  SER195      0.2642
     97  O          0.2970   19.0830  -10.5580 O.2   195  SER195     -0.2714
     98  CB        -0.1490   17.8380  -13.6760 C.3   195  SER195      0.2130
     99  OG        -0.2870   16.5980  -14.3540 O.3   195  SER195     -0.2179
    100  N         -1.0410   20.2170  -11.9660 N.am  196  ALA196     -0.1977
    101  CA        -0.7610   21.5230  -11.3780 C.3   196  ALA196      0.1597
    102  C         -1.0810   21.5590   -9.8860 C.2   196  ALA196      0.2287
    103  O         -0.2590   22.0030   -9.0720 O.2   196  ALA196     -0.2864
    104  CB        -1.5430   22.6060  -12.1120 C.3   196  ALA196      0.0319
    105  N         -4.7440   12.7120   -9.8870 N.3   210  ARG210     -0.1245
    106  CA        -4.9700   12.3760  -11.2980 C.3   210  ARG210      0.1563
    107  C         -3.9660   13.1240  -12.1680 C.2   210  ARG210      0.2260
    108  O         -4.1300   14.3130  -12.4370 O.2   210  ARG210     -0.2867
    109  CB        -6.4010   12.7410  -11.7150 C.3   210  ARG210      0.0307
    110  CG        -7.4980   12.0380  -10.9080 C.3   210  ARG210      0.0489
    111  CD        -8.8780   12.2030  -11.5350 C.3   210  ARG210      0.2205
    112  NE        -9.2390   13.6070  -11.6940 N.pl3 210  ARG210     -0.0865
    113  CZ        -9.6470   14.4170  -10.7180 C.cat 210  ARG210      0.5346
    114  NH1       -9.8470   13.9800   -9.4820 N.pl3 210  ARG210      0.1354
    115  NH2       -9.9120   15.6780  -11.0080 N.pl3 210  ARG210      0.1354
    116  N         -1.9220   13.8260  -15.6090 N.3   212  GLY212     -0.1210
    117  CA        -1.7700   13.7280  -17.0560 C.3   212  GLY212      0.1956
    118  C         -0.4760   14.3770  -17.5200 C.2   212  GLY212      0.2611
    119  O          0.5400   13.7080  -17.6570 O.2   212  GLY212     -0.2717
    120  N         -0.5170   15.6930  -17.7140 N.am  213  ILE213     -0.1979
    121  CA         0.5340   16.4380  -18.4210 C.3   213  ILE213      0.1595
    122  C          1.9390   16.2660  -17.8280 C.2   213  ILE213      0.2287
    123  O          2.9240   16.1890  -18.5720 O.2   213  ILE213     -0.2864
    124  CB         0.1650   17.9510  -18.5130 C.3   213  ILE213      0.0276
    125  CG1        0.9940   18.6690  -19.5870 C.3   213  ILE213      0.0022
    126  CG2        0.3290   18.6370  -17.1670 C.3   213  ILE213      0.0022
    127  CD1        0.7140   18.2210  -20.9950 C.3   213  ILE213      0.0001
    128  N          1.9440   22.2120  -16.9420 N.3   220  PRO220     -0.2116
    129  CA         0.5500   22.6370  -17.1400 C.3   220  PRO220      0.1372
    130  C          0.4050   24.0490  -17.7200 C.2   220  PRO220      0.2244
    131  O         -0.5490   24.3320  -18.4450 O.2   220  PRO220     -0.2868
    132  CB        -0.0290   22.5900  -15.7280 C.3   220  PRO220      0.0268
    133  CG         0.8060   21.6060  -15.0060 C.3   220  PRO220      0.0207
    134  CD         2.1770   21.7250  -15.5710 C.3   220  PRO220      0.0892
    135  N         -1.0050   20.8110  -24.4960 N.3   339  TYR339     -0.1241
    136  CA        -1.9600   19.7000  -24.4590 C.3   339  TYR339      0.1605
    137  C         -2.5260   19.3870  -25.8460 C.2   339  TYR339      0.2264
    138  O         -2.6000   18.2140  -26.2610 O.2   339  TYR339     -0.2867
    139  CB        -3.1520   20.0300  -23.5550 C.3   339  TYR339      0.0534
    140  CG        -2.8940   20.1970  -22.0720 C.ar  339  TYR339     -0.0201
    141  CD1       -2.4390   21.4140  -21.5390 C.ar  339  TYR339     -0.0009
    142  CD2       -3.1920   19.1720  -21.1900 C.ar  339  TYR339     -0.0009
    143  CE1       -2.2540   21.5730  -20.1630 C.ar  339  TYR339      0.0417
    144  CE2       -3.0220   19.3210  -19.8340 C.ar  339  TYR339      0.0417
    145  CZ        -2.5510   20.5150  -19.3180 C.ar  339  TYR339      0.1957
    146  OH        -2.3760   20.6160  -17.9540 O.3   339  TYR339     -0.2866
@<TRIPOS>BOND
     1   138   137    2
     2    20    19    2
     3    19    18    1
     4   137   136    1
     5    18    17    1
     6    18    21    1
     7   135   136    1
     8   136   139    1
     9    21    22    1
    10    10    11    2
    11    10     9    1
    12   139   140    1
    13    22    23   ar
    14    22    24   ar
    15     9    12    1
    16     9     8    1
    17   140   141   ar
    18   140   142   ar
    19    23    25   ar
    20    24    26   ar
    21    12    13    1
    22   141   143   ar
    23    13    14    1
    24   142   144   ar
    25   127   125    1
    26    25    27   ar
    27    26    27   ar
    28    16    15    1
    29    27    28    1
    30    14    15    1
    31   143   145   ar
    32   144   145   ar
    33   125   124    1
    34   145   146    1
    35    62    61    1
    36     4     3    2
    37    59    58    1
    38    59    60    1
    39   123   122    2
    40     3     2    1
    41   124   121    1
    42   124   126    1
    43   131   130    2
    44    58    57    1
    45   121   122    1
    46   121   120    1
    47    61    60    2
    48    61    63    1
    49   130   129    1
    50   120   118   am
    51     6     5    1
    52   119   118    2
    53   118   117    1
    54    56    55    2
    55    57    54    1
    56    52    51    1
    57    54    55    1
    58    54    53    1
    59   129   128    1
    60   129   132    1
    61    31    32    2
    62    31    30    1
    63     2     5    1
    64     2     1    1
    65    29    30    1
    66   117   116    1
    67   128   134    1
    68     5     7    1
    69    33    30    1
    70    33    34    1
    71    35    34    1
    72   132   133    1
    73    48    47    2
    74    34    36    1
    75    51    50    1
    76   134   133    1
    77    50    49    1
    78    85    83   ar
    79    85    84   ar
    80    47    46    1
    81    83    81   ar
    82    99    98    1
    83    84    82   ar
    84    98    95    1
    85    49    46    1
    86    46    45    1
    87    75    74    1
    88    81    82   ar
    89    81    80    1
    90    93    91   am
    91    44    42   am
    92    90    91    1
    93    90    87    1
    94   108   107    2
    95    94    95    1
    96    94    88   am
    97    95    96    1
    98    80    77    1
    99    91    92    2
   100   107   106    1
   101    74    73   ar
   102    74    72   ar
   103   104   101    1
   104   100    96   am
   105   100   101    1
   106    42    41    1
   107    42    43    2
   108    73    71   ar
   109   109   106    1
   110   109   110    1
   111   112   111    1
   112   112   113    2
   113    87    88    1
   114    87    86    1
   115   111   110    1
   116    96    97    2
   117    41    38    1
   118   101   102    1
   119    88    89    2
   120   106   105    1
   121    72    70   ar
   122   115   113    1
   123    77    78    1
   124    77    76    1
   125    78    79    2
   126   113   114    1
   127    71    69   ar
   128    38    37    1
   129    38    39    1
   130    70    69   ar
   131   102   103    2
   132    40    39    2
   133    69    68    1
   134    68    65    1
   135    67    66    2
   136    66    65    1
   137    65    64    1
