@<TRIPOS>MOLECULE
tmp/2vdbA04.pdb
 134 122 0 0 0
SMALL
GASTEIGER

@<TRIPOS>ATOM
      1  N         37.6660    7.8270   12.9720 N.3   199  ARG199     -0.1231
      2  CA        38.9530    7.9820   13.6500 C.3   199  ARG199      0.1694
      3  C         38.8650    7.8480   15.1720 C.2   199  ARG199      0.2591
      4  O         39.6120    7.0660   15.7630 O.2   199  ARG199     -0.2718
      5  CB        39.6330    9.2900   13.2640 C.3   199  ARG199      0.0321
      6  CG        40.9590    9.5060   13.9560 C.3   199  ARG199      0.0489
      7  CD        41.6180   10.7700   13.4530 C.3   199  ARG199      0.2205
      8  NE        42.9740   10.9420   13.9850 N.pl3 199  ARG199     -0.0865
      9  CZ        43.2720   11.6720   15.0590 C.cat 199  ARG199      0.5346
     10  NH1       42.3070   12.2840   15.7470 N.pl3 199  ARG199      0.1354
     11  NH2       44.5360   11.7820   15.4530 N.pl3 199  ARG199      0.1354
     12  N         37.9450    8.5680   15.8030 N.am  200  ALA200     -0.1980
     13  CA        37.7220    8.4150   17.2350 C.3   200  ALA200      0.1597
     14  C         37.2520    7.0150   17.5520 C.2   200  ALA200      0.2287
     15  O         37.6630    6.4070   18.5470 O.2   200  ALA200     -0.2864
     16  CB        36.7140    9.4180   17.7370 C.3   200  ALA200      0.0319
     17  N         37.9650    4.3080   16.0070 N.3   202  LYS202     -0.1231
     18  CA        39.0810    3.3670   15.8940 C.3   202  LYS202      0.1693
     19  C         39.9920    3.4850   17.1060 C.2   202  LYS202      0.2591
     20  O         40.3630    2.4790   17.6830 O.2   202  LYS202     -0.2718
     21  CB        39.8570    3.5380   14.5840 C.3   202  LYS202      0.0285
     22  CG        39.1780    2.8650   13.3600 C.3   202  LYS202      0.0035
     23  CD        39.7910    3.3240   12.0180 C.3   202  LYS202      0.0206
     24  CE        39.6370    2.2510   10.9430 C.3   202  LYS202      0.1093
     25  NZ        39.6200    2.8420    9.5260 N.3   202  LYS202     -0.1314
     26  N         40.2970    4.7120   17.5090 N.am  203  ALA203     -0.1980
     27  CA        41.1220    4.9480   18.6680 C.3   203  ALA203      0.1597
     28  C         40.5540    4.1710   19.8620 C.2   203  ALA203      0.2287
     29  O         41.2740    3.4750   20.5800 O.2   203  ALA203     -0.2864
     30  CB        41.1850    6.4070   18.9570 C.3   203  ALA203      0.0319
     31  N         40.9900    0.3710   19.3430 N.3   206  VAL206     -0.1245
     32  CA        42.3970    0.0500   19.5080 C.3   206  VAL206      0.1561
     33  C         42.6650   -0.0910   20.9990 C.2   206  VAL206      0.2260
     34  O         43.1750   -1.1000   21.4570 O.2   206  VAL206     -0.2867
     35  CB        43.3390    1.1400   18.9140 C.3   206  VAL206      0.0252
     36  CG1       44.7610    0.9640   19.4280 C.3   206  VAL206      0.0019
     37  CG2       43.3560    1.0530   17.4140 C.3   206  VAL206      0.0019
     38  N         50.5490   -5.4830   17.0580 N.3   218  PHE218     -0.1241
     39  CA        49.8250   -4.3540   16.5580 C.3   218  PHE218      0.1605
     40  C         48.9990   -4.7090   15.3320 C.2   218  PHE218      0.2264
     41  O         47.8370   -4.3280   15.2360 O.2   218  PHE218     -0.2867
     42  CB        50.7280   -3.1780   16.2290 C.3   218  PHE218      0.0534
     43  CG        49.9570   -1.9590   15.8560 C.ar  218  PHE218     -0.0203
     44  CD1       50.0080   -1.4510   14.5690 C.ar  218  PHE218     -0.0042
     45  CD2       49.1160   -1.3580   16.7810 C.ar  218  PHE218     -0.0042
     46  CE1       49.2960   -0.3550   14.2250 C.ar  218  PHE218     -0.0003
     47  CE2       48.3790   -0.2500   16.4270 C.ar  218  PHE218     -0.0003
     48  CZ        48.4750    0.2540   15.1510 C.ar  218  PHE218     -0.0000
     49  N         45.2100   -3.9860   14.9010 N.3   222  SER222     -0.1217
     50  CA        44.7990   -3.0650   13.8940 C.3   222  SER222      0.1889
     51  C         43.8260   -3.7800   12.9740 C.2   222  SER222      0.2288
     52  O         42.8680   -3.2000   12.4890 O.2   222  SER222     -0.2866
     53  CB        46.0130   -2.5990   13.1160 C.3   222  SER222      0.2089
     54  OG        45.6160   -1.6760   12.1340 O.3   222  SER222     -0.2183
     55  N         40.5900   -3.9860   14.6180 N.3   225  VAL225     -0.1245
     56  CA        39.9930   -2.6340   14.6120 C.3   225  VAL225      0.1561
     57  C         39.2860   -2.3000   13.2940 C.2   225  VAL225      0.2260
     58  O         38.1680   -1.7610   13.2710 O.2   225  VAL225     -0.2867
     59  CB        41.0650   -1.5500   14.8660 C.3   225  VAL225      0.0252
     60  CG1       40.4740   -0.1480   14.7610 C.3   225  VAL225      0.0019
     61  CG2       41.7190   -1.7800   16.2060 C.3   225  VAL225      0.0019
     62  N         48.4950    8.9110   12.5110 N.3   314  ASP314     -0.1225
     63  CA        47.4570    8.2040   13.1850 C.3   314  ASP314      0.1805
     64  C         47.8900    6.7910   13.5920 C.2   314  ASP314      0.2597
     65  O         47.4760    6.2870   14.6510 O.2   314  ASP314     -0.2718
     66  CB        46.1990    8.1970   12.3240 C.3   314  ASP314      0.1424
     67  CG        45.3790    9.4790   12.4780 C.2   314  ASP314      0.3668
     68  OD1       45.7570   10.3640   13.2930 O.co2 314  ASP314     -0.2456
     69  OD2       44.3470    9.5980   11.7810 O.co2 314  ASP314     -0.2456
     70  N         48.7330    6.1610   12.7730 N.am  315  VAL315     -0.1980
     71  CA        49.2160    4.8240   13.1170 C.3   315  VAL315      0.1595
     72  C         50.2440    4.8810   14.2500 C.2   315  VAL315      0.2287
     73  O         50.2160    4.0600   15.1750 O.2   315  VAL315     -0.2864
     74  CB        49.7930    4.0740   11.9150 C.3   315  VAL315      0.0276
     75  CG1       50.3350    2.7120   12.3520 C.3   315  VAL315      0.0022
     76  CG2       48.7250    3.8820   10.8630 C.3   315  VAL315      0.0022
     77  N         50.3280    7.0480   16.5160 N.3   317  LEU317     -0.1231
     78  CA        49.4470    7.2390   17.6580 C.3   317  LEU317      0.1693
     79  C         48.7240    5.9380   18.0510 C.2   317  LEU317      0.2592
     80  O         48.5920    5.6370   19.2270 O.2   317  LEU317     -0.2718
     81  CB        48.4580    8.3530   17.3640 C.3   317  LEU317      0.0284
     82  CG        49.1050    9.7160   17.1290 C.3   317  LEU317      0.0019
     83  CD1       48.0750   10.6860   16.6490 C.3   317  LEU317      0.0001
     84  CD2       49.7490   10.2420   18.4050 C.3   317  LEU317      0.0001
     85  N         48.3110    5.1470   17.0620 N.am  318  GLY318     -0.1957
     86  CA        47.6460    3.8930   17.3240 C.3   318  GLY318      0.1869
     87  C         48.6000    2.9490   18.0120 C.2   318  GLY318      0.2309
     88  O         48.2460    2.2950   19.0230 O.2   318  GLY318     -0.2863
     89  N         48.8730    4.1660   21.6780 N.3   321  LEU321     -0.1245
     90  CA        47.6590    3.6560   22.3050 C.3   321  LEU321      0.1561
     91  C         47.7610    2.1410   22.5450 C.2   321  LEU321      0.2260
     92  O         47.5130    1.6570   23.6430 O.2   321  LEU321     -0.2867
     93  CB        46.4940    3.8940   21.3730 C.3   321  LEU321      0.0270
     94  CG        45.2560    4.5760   21.9530 C.3   321  LEU321      0.0019
     95  CD1       44.1020    4.4020   20.9680 C.3   321  LEU321      0.0001
     96  CD2       44.9380    4.0530   23.3500 C.3   321  LEU321      0.0001
     97  N         42.7080    6.9740   26.0710 N.3   337  LEU337     -0.1245
     98  CA        42.4600    8.0230   25.1040 C.3   337  LEU337      0.1561
     99  C         43.0130    9.3730   25.5750 C.2   337  LEU337      0.2260
    100  O         43.6970   10.0570   24.8100 O.2   337  LEU337     -0.2867
    101  CB        40.9730    8.1070   24.7650 C.3   337  LEU337      0.0270
    102  CG        40.5230    6.9650   23.8470 C.3   337  LEU337      0.0019
    103  CD1       39.0390    7.0360   23.5100 C.3   337  LEU337      0.0001
    104  CD2       41.3710    6.9030   22.5450 C.3   337  LEU337      0.0001
    105  N         46.6020    9.4010   25.0140 N.3   340  ALA340     -0.1231
    106  CA        47.1100    9.4890   23.6570 C.3   340  ALA340      0.1694
    107  C         46.8810   10.8950   23.1510 C.2   340  ALA340      0.2591
    108  O         47.7020   11.4530   22.4280 O.2   340  ALA340     -0.2718
    109  CB        46.4650    8.4520   22.7520 C.3   340  ALA340      0.0304
    110  N         45.7710   11.4960   23.5570 N.am  341  LYS341     -0.1980
    111  CA        45.4730   12.8480   23.1110 C.3   341  LYS341      0.1596
    112  C         46.6410   13.7450   23.5260 C.2   341  LYS341      0.2287
    113  O         47.2210   14.4640   22.7030 O.2   341  LYS341     -0.2864
    114  CB        44.1590   13.3310   23.7050 C.3   341  LYS341      0.0298
    115  CG        43.3430   14.1980   22.7880 C.3   341  LYS341      0.0038
    116  CD        41.8310   14.1380   23.1600 C.3   341  LYS341      0.0206
    117  CE        41.0070   15.1670   22.3450 C.3   341  LYS341      0.1093
    118  NZ        39.5180   15.0470   22.5790 N.3   341  LYS341     -0.1314
    119  N         49.7320   13.1950   21.5980 N.3   344  GLU344     -0.1245
    120  CA        49.5220   13.7340   20.2700 C.3   344  GLU344      0.1567
    121  C         49.7820   15.2250   20.2490 C.2   344  GLU344      0.2260
    122  O         50.4930   15.7240   19.3590 O.2   344  GLU344     -0.2867
    123  CB        48.0940   13.4460   19.8360 C.3   344  GLU344      0.0388
    124  CG        47.5780   14.3190   18.7040 C.3   344  GLU344      0.1160
    125  CD        46.0770   14.1450   18.4940 C.2   344  GLU344      0.3649
    126  OE1       45.2720   14.5240   19.3880 O.co2 344  GLU344     -0.2457
    127  OE2       45.7170   13.6220   17.4160 O.co2 344  GLU344     -0.2457
    128  N         35.4840   11.7850   25.8750 N.3   472  VAL472     -0.1245
    129  CA        36.7010   11.7480   26.6570 C.3   472  VAL472      0.1561
    130  C         36.6480   12.7270   27.8240 C.2   472  VAL472      0.2260
    131  O         37.2660   12.5000   28.8570 O.2   472  VAL472     -0.2867
    132  CB        37.9010   12.1170   25.7670 C.3   472  VAL472      0.0252
    133  CG1       39.1160   12.3560   26.5880 C.3   472  VAL472      0.0019
    134  CG2       38.1590   11.0260   24.7160 C.3   472  VAL472      0.0019
@<TRIPOS>BOND
     1    25    24    1
     2    76    74    1
     3    24    23    1
     4    69    67   ar
     5    74    75    1
     6    74    71    1
     7    23    22    1
     8    54    53    1
     9    66    67    1
    10    66    63    1
    11    67    68   ar
    12    52    51    2
    13    62    63    1
    14    70    71    1
    15    70    64   am
    16     1     2    1
    17    51    50    1
    18    53    50    1
    19    71    72    1
    20    63    64    1
    21     5     2    1
    22     5     6    1
    23    58    57    2
    24    57    56    1
    25    22    21    1
    26     7     6    1
    27     7     8    1
    28    64    65    2
    29     2     3    1
    30    50    49    1
    31     8     9    2
    32    46    44   ar
    33    46    48   ar
    34    72    73    2
    35    44    43   ar
    36    21    18    1
    37    56    55    1
    38    56    59    1
    39    60    59    1
    40    59    61    1
    41     9    11    1
    42     9    10    1
    43    48    47   ar
    44     3     4    2
    45     3    12   am
    46    41    40    2
    47    40    39    1
    48    12    13    1
    49    43    42    1
    50    43    45   ar
    51    18    17    1
    52    18    19    1
    53    42    39    1
    54    47    45   ar
    55    77    78    1
    56    39    38    1
    57    83    82    1
    58    85    86    1
    59    85    79   am
    60    19    26   am
    61    19    20    2
    62    82    81    1
    63    82    84    1
    64    13    14    1
    65    13    16    1
    66    86    87    1
    67    81    78    1
    68    37    35    1
    69   127   125   ar
    70    26    27    1
    71    14    15    2
    72    78    79    1
    73    87    88    2
    74    79    80    2
    75   125   124    1
    76   125   126   ar
    77    27    30    1
    78    27    28    1
    79   124   123    1
    80    35    36    1
    81    35    32    1
    82    31    32    1
    83   122   121    2
    84    32    33    1
    85   123   120    1
    86    28    29    2
    87   121   120    1
    88   120   119    1
    89    95    94    1
    90    33    34    2
    91    93    94    1
    92    93    90    1
    93    89    90    1
    94    94    96    1
    95    90    91    1
    96   117   118    1
    97   117   116    1
    98   108   107    2
    99    91    92    2
   100   104   102    1
   101   113   112    2
   102   109   106    1
   103   115   116    1
   104   115   114    1
   105   111   112    1
   106   111   110    1
   107   111   114    1
   108   107   110   am
   109   107   106    1
   110   103   102    1
   111   106   105    1
   112   102   101    1
   113   134   132    1
   114   101    98    1
   115   100    99    2
   116    98    99    1
   117    98    97    1
   118   132   133    1
   119   132   129    1
   120   128   129    1
   121   129   130    1
   122   130   131    2
