@<TRIPOS>MOLECULE
tmp/2vdbA06.pdb
 123 118 0 0 0
SMALL
GASTEIGER

@<TRIPOS>ATOM
      1  N          5.3740    0.8600   28.8850 N.3   105  LEU105     -0.1245
      2  CA         4.9800   -0.4570   29.3770 C.3   105  LEU105      0.1561
      3  C          5.2400   -0.6600   30.8750 C.2   105  LEU105      0.2260
      4  O          6.3950   -0.7520   31.3000 O.2   105  LEU105     -0.2867
      5  CB         5.7160   -1.5330   28.5800 C.3   105  LEU105      0.0270
      6  CG         5.1090   -2.9250   28.3970 C.3   105  LEU105      0.0019
      7  CD1        6.2470   -3.8800   28.1350 C.3   105  LEU105      0.0001
      8  CD2        4.2870   -3.3850   29.6110 C.3   105  LEU105      0.0001
      9  N          6.1730  -10.8650   25.6940 N.3   128  TYR128     -0.1241
     10  CA         7.0930   -9.8770   26.2290 C.3   128  TYR128      0.1605
     11  C          8.3020   -9.6150   25.3290 C.2   128  TYR128      0.2264
     12  O          8.8410   -8.5160   25.3210 O.2   128  TYR128     -0.2867
     13  CB         7.5190  -10.2520   27.6480 C.3   128  TYR128      0.0534
     14  CG         6.9250   -9.3420   28.6930 C.ar  128  TYR128     -0.0201
     15  CD1        7.2090   -7.9810   28.6810 C.ar  128  TYR128     -0.0009
     16  CD2        6.0850   -9.8300   29.6880 C.ar  128  TYR128     -0.0009
     17  CE1        6.6710   -7.1220   29.6260 C.ar  128  TYR128      0.0417
     18  CE2        5.5390   -8.9690   30.6470 C.ar  128  TYR128      0.0417
     19  CZ         5.8460   -7.6170   30.6040 C.ar  128  TYR128      0.1957
     20  OH         5.3350   -6.7380   31.5230 O.3   128  TYR128     -0.2866
     21  N          9.1940   -5.7340   23.9270 N.3   132  ILE132     -0.1245
     22  CA        10.4760   -5.0840   24.1280 C.3   132  ILE132      0.1561
     23  C         11.1250   -4.8230   22.7760 C.2   132  ILE132      0.2260
     24  O         11.7140   -3.7600   22.5460 O.2   132  ILE132     -0.2867
     25  CB        11.3610   -5.9810   25.0020 C.3   132  ILE132      0.0252
     26  CG1       10.7470   -6.0440   26.4090 C.3   132  ILE132      0.0019
     27  CG2       12.7990   -5.4630   25.0380 C.3   132  ILE132      0.0019
     28  CD1       11.0120   -7.3380   27.1540 C.3   132  ILE132      0.0001
     29  N          9.8810   -1.4340   21.0010 N.3   135  ARG135     -0.1231
     30  CA        10.3050   -0.1610   21.5800 C.3   135  ARG135      0.1694
     31  C         11.7910    0.0580   21.3710 C.2   135  ARG135      0.2592
     32  O         12.3010    1.1590   21.5980 O.2   135  ARG135     -0.2718
     33  CB        10.0190   -0.1420   23.0740 C.3   135  ARG135      0.0321
     34  CG         8.5570   -0.2300   23.3940 C.3   135  ARG135      0.0489
     35  CD         8.2820   -0.2400   24.8950 C.3   135  ARG135      0.2205
     36  NE         6.8910    0.1300   25.1480 N.pl3 135  ARG135     -0.0865
     37  CZ         5.8560   -0.6880   24.9830 C.cat 135  ARG135      0.5346
     38  NH1        6.0420   -1.9340   24.5800 N.pl3 135  ARG135      0.1354
     39  NH2        4.6300   -0.2530   25.2270 N.pl3 135  ARG135      0.1354
     40  N         12.4840   -1.0040   20.9560 N.am  136  HIS136     -0.1976
     41  CA        13.9340   -0.9750   20.7890 C.3   136  HIS136      0.1656
     42  C         14.3110   -1.5030   19.4140 C.2   136  HIS136      0.2291
     43  O         14.8230   -2.6110   19.2840 O.2   136  HIS136     -0.2864
     44  CB        14.6050   -1.7330   21.9370 C.3   136  HIS136      0.0771
     45  CG        14.4430   -1.0420   23.2560 C.ar  136  HIS136      0.0820
     46  ND1       13.3270   -1.2060   24.0510 N.ar  136  HIS136     -0.2267
     47  CD2       15.2140   -0.1150   23.8780 C.ar  136  HIS136      0.1154
     48  CE1       13.4350   -0.4370   25.1210 C.ar  136  HIS136      0.1986
     49  NE2       14.5710    0.2340   25.0420 N.ar  136  HIS136     -0.2212
     50  N         17.8930   -2.7660   18.4050 N.3   139  PHE139     -0.1241
     51  CA        18.4960   -3.6950   19.3510 C.3   139  PHE139      0.1605
     52  C         18.8280   -5.0200   18.6890 C.2   139  PHE139      0.2264
     53  O         17.9430   -5.8350   18.4270 O.2   139  PHE139     -0.2867
     54  CB        17.5290   -3.9600   20.5090 C.3   139  PHE139      0.0534
     55  CG        18.1800   -4.5790   21.6970 C.ar  139  PHE139     -0.0203
     56  CD1       17.9200   -4.0980   22.9760 C.ar  139  PHE139     -0.0042
     57  CD2       19.0810   -5.6120   21.5470 C.ar  139  PHE139     -0.0042
     58  CE1       18.5310   -4.6510   24.0800 C.ar  139  PHE139     -0.0003
     59  CE2       19.7100   -6.1640   22.6400 C.ar  139  PHE139     -0.0003
     60  CZ        19.4320   -5.6850   23.9160 C.ar  139  PHE139     -0.0000
     61  N         18.9970   -9.7630   22.1220 N.3   144  LEU144     -0.1245
     62  CA        17.7020   -9.7480   22.7700 C.3   144  LEU144      0.1561
     63  C         17.2870  -11.1790   23.0820 C.2   144  LEU144      0.2260
     64  O         16.7640  -11.4620   24.1530 O.2   144  LEU144     -0.2867
     65  CB        16.6830   -9.0730   21.8800 C.3   144  LEU144      0.0270
     66  CG        15.3940   -8.5850   22.5050 C.3   144  LEU144      0.0019
     67  CD1       15.6310   -7.7280   23.8000 C.3   144  LEU144      0.0001
     68  CD2       14.6890   -7.7790   21.4600 C.3   144  LEU144      0.0001
     69  N         18.8800  -12.4670   26.2920 N.3   147  PHE147     -0.1241
     70  CA        18.1540  -11.9690   27.4470 C.3   147  PHE147      0.1605
     71  C         16.8760  -12.7520   27.6840 C.2   147  PHE147      0.2264
     72  O         16.5520  -13.0720   28.8310 O.2   147  PHE147     -0.2867
     73  CB        17.8330  -10.4990   27.2800 C.3   147  PHE147      0.0534
     74  CG        18.9940   -9.6050   27.5540 C.ar  147  PHE147     -0.0203
     75  CD1       19.4710   -9.4430   28.8520 C.ar  147  PHE147     -0.0042
     76  CD2       19.6170   -8.9210   26.5220 C.ar  147  PHE147     -0.0042
     77  CE1       20.5510   -8.6140   29.1180 C.ar  147  PHE147     -0.0003
     78  CE2       20.7020   -8.0880   26.7720 C.ar  147  PHE147     -0.0003
     79  CZ        21.1710   -7.9250   28.0760 C.ar  147  PHE147     -0.0000
     80  N         15.7120  -14.4990   30.8830 N.3   151  TYR151     -0.1241
     81  CA        14.4250  -14.2440   31.5210 C.3   151  TYR151      0.1605
     82  C         13.7620  -15.5400   31.9660 C.2   151  TYR151      0.2264
     83  O         13.2710  -15.6350   33.0960 O.2   151  TYR151     -0.2867
     84  CB        13.4940  -13.4420   30.6110 C.3   151  TYR151      0.0534
     85  CG        13.6960  -11.9300   30.6880 C.ar  151  TYR151     -0.0201
     86  CD1       13.0870  -11.1630   31.6930 C.ar  151  TYR151     -0.0009
     87  CD2       14.4750  -11.2640   29.7450 C.ar  151  TYR151     -0.0009
     88  CE1       13.2640   -9.7840   31.7520 C.ar  151  TYR151      0.0417
     89  CE2       14.6570   -9.8830   29.8010 C.ar  151  TYR151      0.0417
     90  CZ        14.0520   -9.1550   30.7980 C.ar  151  TYR151      0.1957
     91  OH        14.2500   -7.7940   30.8270 O.3   151  TYR151     -0.2866
     92  N         17.9960   -7.3270   34.8150 N.3   175  LEU175     -0.1231
     93  CA        17.8950   -7.6200   33.3860 C.3   175  LEU175      0.1693
     94  C         17.5260   -6.3600   32.6080 C.2   175  LEU175      0.2591
     95  O         18.2350   -5.9730   31.6740 O.2   175  LEU175     -0.2718
     96  CB        16.9040   -8.7480   33.1210 C.3   175  LEU175      0.0284
     97  CG        17.4770  -10.1360   32.8130 C.3   175  LEU175      0.0019
     98  CD1       18.8120  -10.3880   33.4680 C.3   175  LEU175      0.0001
     99  CD2       16.4810  -11.1950   33.2420 C.3   175  LEU175      0.0001
    100  N         16.4300   -5.7200   33.0180 N.am  176  ARG176     -0.1980
    101  CA        16.0210   -4.4240   32.4860 C.3   176  ARG176      0.1597
    102  C         17.1910   -3.4500   32.3750 C.2   176  ARG176      0.2287
    103  O         17.4360   -2.8710   31.3170 O.2   176  ARG176     -0.2864
    104  CB        14.9430   -3.8230   33.3760 C.3   176  ARG176      0.0334
    105  CG        14.4350   -2.4480   32.9550 C.3   176  ARG176      0.0492
    106  CD        13.4170   -1.9150   33.9700 C.3   176  ARG176      0.2205
    107  NE        14.0640   -1.5800   35.2380 N.pl3 176  ARG176     -0.0865
    108  CZ        14.2960   -0.3380   35.6570 C.cat 176  ARG176      0.5346
    109  NH1       13.9110    0.7060   34.9190 N.pl3 176  ARG176      0.1354
    110  NH2       14.9030   -0.1380   36.8250 N.pl3 176  ARG176      0.1354
    111  N         19.7340   -4.7210   29.6330 N.3   179  GLY179     -0.1210
    112  CA        19.0600   -4.4250   28.3870 C.3   179  GLY179      0.1956
    113  C         19.1470   -2.9570   28.0340 C.2   179  GLY179      0.2611
    114  O         19.8010   -2.5920   27.0630 O.2   179  GLY179     -0.2717
    115  N         18.5040   -2.1140   28.8300 N.am  180  LYS180     -0.1979
    116  CA        18.4460   -0.6910   28.5320 C.3   180  LYS180      0.1596
    117  C         19.8340   -0.1480   28.2300 C.2   180  LYS180      0.2287
    118  O         20.0250    0.6130   27.2850 O.2   180  LYS180     -0.2864
    119  CB        17.8110    0.0950   29.6860 C.3   180  LYS180      0.0298
    120  CG        16.2950    0.0140   29.7870 C.3   180  LYS180      0.0038
    121  CD        15.7510    1.0240   30.8290 C.3   180  LYS180      0.0206
    122  CE        16.5000    0.9100   32.1860 C.3   180  LYS180      0.1093
    123  NZ        16.0230    1.8560   33.2360 N.3   180  LYS180     -0.1314
@<TRIPOS>BOND
     1    50    51    1
     2    53    52    2
     3    52    51    1
     4    43    42    2
     5    51    54    1
     6    42    41    1
     7    54    55    1
     8    41    40    1
     9    41    44    1
    10    40    31   am
    11    29    30    1
    12    31    30    1
    13    31    32    2
    14    68    66    1
    15    57    55   ar
    16    57    59   ar
    17    30    33    1
    18    55    56   ar
    19    65    66    1
    20    65    62    1
    21    44    45    1
    22    61    62    1
    23    66    67    1
    24    24    23    2
    25    59    60   ar
    26    62    63    1
    27    23    22    1
    28    56    58   ar
    29    33    34    1
    30    63    64    2
    31    45    47   ar
    32    45    46   ar
    33    34    35    1
    34    47    49   ar
    35    60    58   ar
    36    21    22    1
    37    46    48   ar
    38    22    25    1
    39    38    37    1
    40    35    36    1
    41    37    36    2
    42    37    39    1
    43    25    27    1
    44    25    26    1
    45    49    48   ar
    46    12    11    2
    47    11    10    1
    48     9    10    1
    49    10    13    1
    50    69    70    1
    51    26    28    1
    52    76    78   ar
    53    76    74   ar
    54    78    79   ar
    55   114   113    2
    56    73    70    1
    57    73    74    1
    58   118   117    2
    59    70    71    1
    60    74    75   ar
    61    13    14    1
    62    71    72    2
    63   113   112    1
    64   113   115   am
    65    79    77   ar
    66     7     6    1
    67   117   116    1
    68   112   111    1
    69     6     5    1
    70     6     8    1
    71   116   115    1
    72   116   119    1
    73     5     2    1
    74    15    14   ar
    75    15    17   ar
    76    14    16   ar
    77    75    77   ar
    78     1     2    1
    79     2     3    1
    80    17    19   ar
    81   119   120    1
    82    16    18   ar
    83    87    89   ar
    84    87    85   ar
    85   120   121    1
    86    89    90   ar
    87    19    18   ar
    88    19    20    1
    89    84    85    1
    90    84    81    1
    91    85    86   ar
    92    90    91    1
    93    90    88   ar
    94   121   122    1
    95     3     4    2
    96    80    81    1
    97   103   102    2
    98    81    82    1
    99    95    94    2
   100    86    88   ar
   101    82    83    2
   102   122   123    1
   103   102   101    1
   104   101   100    1
   105   101   104    1
   106    94   100   am
   107    94    93    1
   108    97    96    1
   109    97    99    1
   110    97    98    1
   111   105   104    1
   112   105   106    1
   113    96    93    1
   114    93    92    1
   115   106   107    1
   116   109   108    1
   117   107   108    2
   118   108   110    1
