@<TRIPOS>MOLECULE
tmp/2vdbA02.pdb
 159 146 0 0 0
SMALL
GASTEIGER

@<TRIPOS>ATOM
      1  N         40.7780    2.9320   32.2410 N.3   332  SER332     -0.1217
      2  CA        39.5640    3.0200   31.4520 C.3   332  SER332      0.1889
      3  C         40.0140    3.3710   30.0390 C.2   332  SER332      0.2288
      4  O         41.1060    3.9290   29.8330 O.2   332  SER332     -0.2866
      5  CB        38.7250    4.1720   31.9500 C.3   332  SER332      0.2089
      6  OG        39.3940    5.4090   31.6560 O.3   332  SER332     -0.2183
      7  N         38.7530    5.6270   28.1370 N.3   334  VAL334     -0.1245
      8  CA        38.7940    7.0840   27.9600 C.3   334  VAL334      0.1561
      9  C         40.0370    7.6400   28.5840 C.2   334  VAL334      0.2260
     10  O         40.5490    8.6670   28.1440 O.2   334  VAL334     -0.2867
     11  CB        37.5450    7.8370   28.5330 C.3   334  VAL334      0.0252
     12  CG1       36.2570    7.3420   27.8770 C.3   334  VAL334      0.0019
     13  CG2       37.4650    7.6720   30.0010 C.3   334  VAL334      0.0019
     14  N         42.7510    9.7730   26.8200 N.3   338  ARG338     -0.1245
     15  CA        43.2620   11.1010   27.2650 C.3   338  ARG338      0.1563
     16  C         44.7900   11.1310   27.0870 C.2   338  ARG338      0.2260
     17  O         45.3540   12.0800   26.5200 O.2   338  ARG338     -0.2867
     18  CB        42.8680   11.4010   28.7230 C.3   338  ARG338      0.0307
     19  CG        41.3710   11.4120   28.9310 C.3   338  ARG338      0.0489
     20  CD        40.9000   11.9310   30.2620 C.3   338  ARG338      0.2205
     21  NE        39.4720   11.6010   30.4050 N.pl3 338  ARG338     -0.0865
     22  CZ        38.9740   10.7320   31.2880 C.cat 338  ARG338      0.5346
     23  NH1       39.7830   10.1260   32.1580 N.pl3 338  ARG338      0.1354
     24  NH2       37.6660   10.4800   31.3210 N.pl3 338  ARG338      0.1354
     25  N         41.1420   10.1410   37.8360 N.3   374  PRO374     -0.2116
     26  CA        40.1130    9.1060   38.0480 C.3   374  PRO374      0.1372
     27  C         40.4740    8.0860   39.1310 C.2   374  PRO374      0.2244
     28  O         39.6130    7.6770   39.8930 O.2   374  PRO374     -0.2868
     29  CB        39.9950    8.4200   36.6800 C.3   374  PRO374      0.0268
     30  CG        41.2930    8.7220   35.9800 C.3   374  PRO374      0.0207
     31  CD        41.7050   10.0900   36.4760 C.3   374  PRO374      0.0892
     32  N         39.6180    9.4550   42.2810 N.3   377  LEU377     -0.1231
     33  CA        38.1800    9.6240   42.2750 C.3   377  LEU377      0.1693
     34  C         37.4770    8.3390   42.6440 C.2   377  LEU377      0.2591
     35  O         36.4850    8.3320   43.3650 O.2   377  LEU377     -0.2718
     36  CB        37.7260   10.1020   40.9100 C.3   377  LEU377      0.0284
     37  CG        36.4690   10.9540   40.9060 C.3   377  LEU377      0.0019
     38  CD1       36.6500   12.1980   41.7740 C.3   377  LEU377      0.0001
     39  CD2       36.1940   11.3500   39.4790 C.3   377  LEU377      0.0001
     40  N         38.0160    7.2440   42.1520 N.am  378  ILE378     -0.1980
     41  CA        37.5230    5.9240   42.4800 C.3   378  ILE378      0.1595
     42  C         37.7990    5.5660   43.9380 C.2   378  ILE378      0.2287
     43  O         36.9200    5.0420   44.6150 O.2   378  ILE378     -0.2864
     44  CB        38.1280    4.8890   41.5260 C.3   378  ILE378      0.0276
     45  CG1       37.7020    5.2240   40.0970 C.3   378  ILE378      0.0022
     46  CG2       37.6720    3.5020   41.8850 C.3   378  ILE378      0.0022
     47  CD1       38.5500    4.5770   39.0460 C.3   378  ILE378      0.0001
     48  N         35.3710    7.5120   46.3270 N.3   381  ASN381     -0.1240
     49  CA        33.9750    7.1060   46.1860 C.3   381  ASN381      0.1653
     50  C         33.7180    5.6800   46.6090 C.2   381  ASN381      0.2266
     51  O         32.7350    5.4010   47.2810 O.2   381  ASN381     -0.2867
     52  CB        33.4490    7.3750   44.7870 C.3   381  ASN381      0.1155
     53  CG        33.0110    8.8020   44.6160 C.2   381  ASN381      0.2627
     54  OD1       31.8970    9.1570   44.9700 O.2   381  ASN381     -0.2716
     55  ND2       33.8980    9.6400   44.1030 N.am  381  ASN381     -0.0877
     56  N         25.0260    5.1100   50.4040 N.3   393  PHE393     -0.1241
     57  CA        25.8140    5.6780   49.3050 C.3   393  PHE393      0.1605
     58  C         24.9600    6.4470   48.2890 C.2   393  PHE393      0.2264
     59  O         25.2780    7.5810   47.9250 O.2   393  PHE393     -0.2867
     60  CB        26.5830    4.5750   48.5880 C.3   393  PHE393      0.0534
     61  CG        27.6560    5.0830   47.7060 C.ar  393  PHE393     -0.0203
     62  CD1       28.5910    5.9810   48.1860 C.ar  393  PHE393     -0.0042
     63  CD2       27.7390    4.6760   46.3940 C.ar  393  PHE393     -0.0042
     64  CE1       29.5910    6.4590   47.3680 C.ar  393  PHE393     -0.0003
     65  CE2       28.7540    5.1620   45.5650 C.ar  393  PHE393     -0.0003
     66  CZ        29.6690    6.0480   46.0550 C.ar  393  PHE393     -0.0000
     67  N         25.1660   10.5490   47.2780 N.3   397  LEU397     -0.1245
     68  CA        25.1020   11.0420   45.9230 C.3   397  LEU397      0.1561
     69  C         23.8650   11.9090   45.7240 C.2   397  LEU397      0.2260
     70  O         23.9450   13.0000   45.1460 O.2   397  LEU397     -0.2867
     71  CB        25.0510    9.8690   44.9490 C.3   397  LEU397      0.0270
     72  CG        26.2050    8.8680   44.9140 C.3   397  LEU397      0.0019
     73  CD1       25.9920    7.9670   43.7580 C.3   397  LEU397      0.0001
     74  CD2       27.5450    9.5280   44.7410 C.3   397  LEU397      0.0001
     75  N         24.9170   15.0730   47.0710 N.3   400  ARG400     -0.1231
     76  CA        25.9490   15.6870   46.2530 C.3   400  ARG400      0.1694
     77  C         25.4120   16.2950   44.9560 C.2   400  ARG400      0.2592
     78  O         25.7050   17.4430   44.6430 O.2   400  ARG400     -0.2718
     79  CB        27.0370   14.6800   45.9320 C.3   400  ARG400      0.0321
     80  CG        28.1840   15.2290   45.1090 C.3   400  ARG400      0.0489
     81  CD        29.1040   14.0720   44.6530 C.3   400  ARG400      0.2205
     82  NE        29.7180   13.3500   45.7640 N.pl3 400  ARG400     -0.0865
     83  CZ        30.3840   12.2100   45.6340 C.cat 400  ARG400      0.5346
     84  NH1       30.5300   11.6490   44.4440 N.pl3 400  ARG400      0.1354
     85  NH2       30.9020   11.6170   46.6910 N.pl3 400  ARG400      0.1354
     86  N         24.6150   15.5500   44.2090 N.am  401  TYR401     -0.1976
     87  CA        24.1750   16.0620   42.9050 C.3   401  TYR401      0.1639
     88  C         23.0450   17.0780   42.9820 C.2   401  TYR401      0.2290
     89  O         22.9770   18.0180   42.1920 O.2   401  TYR401     -0.2864
     90  CB        23.9200   14.9230   41.9180 C.3   401  TYR401      0.0560
     91  CG        25.1750   14.1160   41.7820 C.ar  401  TYR401     -0.0198
     92  CD1       26.3600   14.7360   41.3790 C.ar  401  TYR401     -0.0009
     93  CD2       25.2180   12.7620   42.1410 C.ar  401  TYR401     -0.0009
     94  CE1       27.5450   14.0300   41.2950 C.ar  401  TYR401      0.0417
     95  CE2       26.4080   12.0340   42.0540 C.ar  401  TYR401      0.0417
     96  CZ        27.5700   12.6810   41.6300 C.ar  401  TYR401      0.1957
     97  OH        28.7770   12.0110   41.5380 O.3   401  TYR401     -0.2866
     98  N         24.0090    5.5860   39.7490 N.3   420  LEU420     -0.1245
     99  CA        25.3810    5.8860   40.1100 C.3   420  LEU420      0.1561
    100  C         25.7720    5.0240   41.2950 C.2   420  LEU420      0.2260
    101  O         26.8740    4.4750   41.3390 O.2   420  LEU420     -0.2867
    102  CB        25.5120    7.3570   40.4650 C.3   420  LEU420      0.0270
    103  CG        26.3540    8.2670   39.5830 C.3   420  LEU420      0.0019
    104  CD1       26.3740    7.8140   38.1750 C.3   420  LEU420      0.0001
    105  CD2       25.8470    9.7030   39.6750 C.3   420  LEU420      0.0001
    106  N         26.0990    1.5490   40.3760 N.3   423  VAL423     -0.1245
    107  CA        27.4120    1.4010   39.7480 C.3   423  VAL423      0.1561
    108  C         28.4720    1.0680   40.7940 C.2   423  VAL423      0.2260
    109  O         29.3180    0.2010   40.5830 O.2   423  VAL423     -0.2867
    110  CB        27.8130    2.6260   38.8820 C.3   423  VAL423      0.0252
    111  CG1       29.3190    2.6210   38.5980 C.3   423  VAL423      0.0019
    112  CG2       27.0240    2.6220   37.5650 C.3   423  VAL423      0.0019
    113  N         38.6320    0.9440   37.4400 N.3   436  MET436     -0.1245
    114  CA        38.3970    2.0500   36.5370 C.3   436  MET436      0.1570
    115  C         37.6450    1.5750   35.3150 C.2   436  MET436      0.2261
    116  O         36.6870    2.2050   34.9290 O.2   436  MET436     -0.2867
    117  CB        39.6850    2.7450   36.1370 C.3   436  MET436      0.0387
    118  CG        39.4540    4.0970   35.5220 C.3   436  MET436      0.0595
    119  SD        41.0060    4.9130   35.1410 S.3   436  MET436     -0.1393
    120  CE        41.9910    4.3230   36.5250 C.3   436  MET436      0.0692
    121  N         33.9840    1.0370   36.1050 N.3   439  ALA439     -0.1231
    122  CA        33.3560    2.3360   36.2880 C.3   439  ALA439      0.1694
    123  C         32.9900    2.9940   34.9650 C.2   439  ALA439      0.2591
    124  O         31.8440    3.3680   34.7670 O.2   439  ALA439     -0.2718
    125  CB        34.2570    3.2330   37.0710 C.3   439  ALA439      0.0304
    126  N         33.9560    3.1270   34.0620 N.am  440  GLU440     -0.1979
    127  CA        33.7180    3.7100   32.7530 C.3   440  GLU440      0.1602
    128  C         32.4970    3.0990   32.0670 C.2   440  GLU440      0.2287
    129  O         31.5880    3.8080   31.6250 O.2   440  GLU440     -0.2864
    130  CB        34.9500    3.4990   31.8740 C.3   440  GLU440      0.0415
    131  CG        34.7290    3.7500   30.3870 C.3   440  GLU440      0.1163
    132  CD        35.9830    3.5160   29.5880 C.2   440  GLU440      0.3649
    133  OE1       36.6300    2.4390   29.7460 O.co2 440  GLU440     -0.2457
    134  OE2       36.3340    4.4180   28.7970 O.co2 440  GLU440     -0.2457
    135  N         29.3370    3.8550   33.9670 N.3   443  LEU443     -0.1245
    136  CA        29.2290    5.3010   34.0710 C.3   443  LEU443      0.1561
    137  C         28.8470    6.0090   32.7890 C.2   443  LEU443      0.2260
    138  O         28.0990    6.9770   32.8190 O.2   443  LEU443     -0.2867
    139  CB        30.5490    5.8710   34.5380 C.3   443  LEU443      0.0270
    140  CG        30.3270    6.7590   35.7410 C.3   443  LEU443      0.0019
    141  CD1       30.4840    5.8930   36.9530 C.3   443  LEU443      0.0001
    142  CD2       31.3340    7.8770   35.7160 C.3   443  LEU443      0.0001
    143  N         32.9400   12.8670   31.5120 N.3   475  ARG475     -0.1245
    144  CA        32.9470   12.5960   32.9300 C.3   475  ARG475      0.1563
    145  C         33.7810   13.6300   33.7290 C.2   475  ARG475      0.2260
    146  O         33.2930   14.1670   34.7420 O.2   475  ARG475     -0.2867
    147  CB        33.3090   11.1320   33.1710 C.3   475  ARG475      0.0307
    148  CG        33.3760   10.6970   34.5940 C.3   475  ARG475      0.0489
    149  CD        34.8500   10.4230   34.9660 C.3   475  ARG475      0.2205
    150  NE        35.4220   11.5720   35.6230 N.pl3 475  ARG475     -0.0865
    151  CZ        36.7100   11.8620   35.6970 C.cat 475  ARG475      0.5346
    152  NH1       37.0760   12.9600   36.3470 N.pl3 475  ARG475      0.1354
    153  NH2       37.6160   11.0840   35.1270 N.pl3 475  ARG475      0.1354
    154  N         32.5600   15.9470   36.6510 N.3   479  SER479     -0.1217
    155  CA        33.2430   15.9190   37.9240 C.3   479  SER479      0.1889
    156  C         33.7280   17.2760   38.3860 C.2   479  SER479      0.2288
    157  O         34.0180   17.4440   39.5590 O.2   479  SER479     -0.2866
    158  CB        34.3790   14.9210   37.9120 C.3   479  SER479      0.2089
    159  OG        33.8390   13.6140   38.1100 O.3   479  SER479     -0.2183
@<TRIPOS>BOND
     1    17    16    2
     2    14    15    1
     3    16    15    1
     4    15    18    1
     5    12    11    1
     6     8     7    1
     7     8    11    1
     8     8     9    1
     9    10     9    2
    10    11    13    1
    11    18    19    1
    12   134   132   ar
    13    19    20    1
    14   132   133   ar
    15   132   131    1
    16     4     3    2
    17     3     2    1
    18    20    21    1
    19   131   130    1
    20    21    22    2
    21    22    24    1
    22    22    23    1
    23     2     5    1
    24     2     1    1
    25   143   144    1
    26   129   128    2
    27     6     5    1
    28   130   127    1
    29   128   127    1
    30   127   126    1
    31   137   138    2
    32   137   136    1
    33   144   147    1
    34   144   145    1
    35   147   148    1
    36   145   146    2
    37   135   136    1
    38   126   123   am
    39   136   139    1
    40   139   140    1
    41   148   149    1
    42   124   123    2
    43   116   115    2
    44   123   122    1
    45   149   150    1
    46   153   151    1
    47   119   118    1
    48   119   120    1
    49   115   114    1
    50   118   117    1
    51   150   151    2
    52   151   152    1
    53   142   140    1
    54   140   141    1
    55    30    31    1
    56    30    29    1
    57   121   122    1
    58   117   114    1
    59   122   125    1
    60    31    25    1
    61   114   113    1
    62   154   155    1
    63    29    26    1
    64   112   110    1
    65    25    26    1
    66   158   155    1
    67   158   159    1
    68   155   156    1
    69    26    27    1
    70   104   103    1
    71   156   157    2
    72   111   110    1
    73   110   107    1
    74    47    45    1
    75    27    28    2
    76    39    37    1
    77   103   105    1
    78   103   102    1
    79   107   106    1
    80   107   108    1
    81    98    99    1
    82    45    44    1
    83    99   102    1
    84    99   100    1
    85   109   108    2
    86    37    36    1
    87    37    38    1
    88    36    33    1
    89    94    92   ar
    90    94    96   ar
    91   100   101    2
    92    92    91   ar
    93    44    46    1
    94    44    41    1
    95    97    96    1
    96    96    95   ar
    97    91    90    1
    98    91    93   ar
    99    90    87    1
   100    95    93   ar
   101    40    41    1
   102    40    34   am
   103    89    88    2
   104    33    32    1
   105    33    34    1
   106    41    42    1
   107    34    35    2
   108    87    88    1
   109    87    86    1
   110    73    72    1
   111    42    43    2
   112    55    53   am
   113    86    77   am
   114    84    83    1
   115    53    52    1
   116    53    54    2
   117    78    77    2
   118    81    80    1
   119    81    82    1
   120    74    72    1
   121    52    49    1
   122    72    71    1
   123    71    68    1
   124    77    76    1
   125    80    79    1
   126    70    69    2
   127    65    66   ar
   128    65    63   ar
   129    83    82    2
   130    83    85    1
   131    69    68    1
   132    68    67    1
   133    79    76    1
   134    66    64   ar
   135    49    48    1
   136    49    50    1
   137    76    75    1
   138    63    61   ar
   139    50    51    2
   140    64    62   ar
   141    61    62   ar
   142    61    60    1
   143    59    58    2
   144    58    57    1
   145    60    57    1
   146    57    56    1
