@<TRIPOS>MOLECULE
tmp/2vdfA00.pdb
 84 87 0 0 0
SMALL
GASTEIGER

@<TRIPOS>ATOM
      1  N          3.7650  -12.5600  -41.6020 N.3   145  PRO145     -0.2102
      2  CA         4.2930  -13.2360  -40.4180 C.3   145  PRO145      0.1504
      3  C          5.8020  -13.0800  -40.3520 C.2   145  PRO145      0.2575
      4  O          6.4750  -13.1330  -41.3830 O.2   145  PRO145     -0.2718
      5  CB         3.9160  -14.7050  -40.6480 C.3   145  PRO145      0.0282
      6  CG         2.9130  -14.6920  -41.7700 C.3   145  PRO145      0.0208
      7  CD         3.2410  -13.5140  -42.5960 C.3   145  PRO145      0.0893
      8  N          6.3360  -12.8990  -39.1430 N.am  146  TRP146     -0.1977
      9  CA         7.7600  -12.6390  -38.9740 C.3   146  TRP146      0.1640
     10  C          8.2980  -13.2700  -37.6820 C.2   146  TRP146      0.2290
     11  O          7.5380  -13.5570  -36.7500 O.2   146  TRP146     -0.2864
     12  CB         8.0390  -11.1210  -38.9920 C.3   146  TRP146      0.0576
     13  CG         7.3230  -10.3640  -37.8950 C.ar  146  TRP146      0.0006
     14  CD1        6.0980   -9.7650  -37.9720 C.ar  146  TRP146      0.0946
     15  CD2        7.7860  -10.1520  -36.5530 C.ar  146  TRP146      0.0152
     16  NE1        5.7710   -9.1980  -36.7700 N.ar  146  TRP146     -0.2442
     17  CE2        6.7880   -9.4190  -35.8790 C.ar  146  TRP146      0.0810
     18  CE3        8.9470  -10.5110  -35.8580 C.ar  146  TRP146      0.0012
     19  CZ2        6.9130   -9.0340  -34.5410 C.ar  146  TRP146      0.0191
     20  CZ3        9.0670  -10.1370  -34.5290 C.ar  146  TRP146      0.0001
     21  CH2        8.0580   -9.4040  -33.8850 C.ar  146  TRP146      0.0015
     22  N          8.0730  -12.9110  -32.2950 N.3   174  LEU174     -0.1231
     23  CA         7.2100  -13.5030  -33.3160 C.3   174  LEU174      0.1693
     24  C          6.0080  -12.5930  -33.4720 C.2   174  LEU174      0.2593
     25  O          5.5530  -12.0030  -32.5010 O.2   174  LEU174     -0.2718
     26  CB         6.7210  -14.8870  -32.8740 C.3   174  LEU174      0.0284
     27  CG         7.6920  -16.0580  -32.7090 C.3   174  LEU174      0.0019
     28  CD1        7.1870  -17.0270  -31.6480 C.3   174  LEU174      0.0001
     29  CD2        7.8990  -16.7780  -34.0330 C.3   174  LEU174      0.0001
     30  N          5.5020  -12.4560  -34.6920 N.am  175  GLY175     -0.1942
     31  CA         4.3170  -11.6290  -34.9140 C.3   175  GLY175      0.2014
     32  C          3.7820  -11.7770  -36.3220 C.2   175  GLY175      0.2638
     33  O          4.2880  -12.5770  -37.1070 O.2   175  GLY175     -0.2714
     34  N          2.7470  -11.0140  -36.6440 N.am  176  ALA176     -0.1977
     35  CA         2.1920  -11.0400  -37.9920 C.3   176  ALA176      0.1597
     36  C          1.4270   -9.7660  -38.2310 C.2   176  ALA176      0.2287
     37  O          0.5420   -9.4080  -37.4520 O.2   176  ALA176     -0.2864
     38  CB         1.2870  -12.2560  -38.1840 C.3   176  ALA176      0.0319
     39  N         -0.4360   -8.2990  -34.0000 N.3   190  PRO190     -0.2102
     40  CA         0.0470   -8.6830  -32.6860 C.3   190  PRO190      0.1504
     41  C          1.4940   -9.1620  -32.7580 C.2   190  PRO190      0.2576
     42  O          1.9890   -9.5190  -33.8340 O.2   190  PRO190     -0.2718
     43  CB        -0.8720   -9.8420  -32.3080 C.3   190  PRO190      0.0282
     44  CG        -1.1710  -10.5000  -33.6120 C.3   190  PRO190      0.0208
     45  CD        -1.1930   -9.3860  -34.6470 C.3   190  PRO190      0.0893
     46  N          2.1650   -9.1520  -31.6160 N.am  191  PHE191     -0.1963
     47  CA         3.5210   -9.6590  -31.5380 C.3   191  PHE191      0.1771
     48  C          3.7670  -10.2070  -30.1400 C.2   191  PHE191      0.2619
     49  O          3.0760   -9.8410  -29.1900 O.2   191  PHE191     -0.2715
     50  CB         4.5590   -8.5830  -31.9300 C.3   191  PHE191      0.0574
     51  CG         4.6540   -7.4180  -30.9660 C.ar  191  PHE191     -0.0200
     52  CD1        5.3660   -7.5330  -29.7810 C.ar  191  PHE191     -0.0042
     53  CD2        4.0500   -6.2040  -31.2610 C.ar  191  PHE191     -0.0042
     54  CE1        5.4620   -6.4580  -28.8960 C.ar  191  PHE191     -0.0003
     55  CE2        4.1380   -5.1250  -30.3850 C.ar  191  PHE191     -0.0003
     56  CZ         4.8460   -5.2460  -29.2020 C.ar  191  PHE191     -0.0000
     57  N          4.7260  -11.1190  -30.0350 N.am  192  TYR192     -0.1974
     58  CA         5.1590  -11.6220  -28.7470 C.3   192  TYR192      0.1639
     59  C          6.6710  -11.5820  -28.7210 C.2   192  TYR192      0.2290
     60  O          7.3190  -12.0220  -29.6800 O.2   192  TYR192     -0.2864
     61  CB         4.6700  -13.0560  -28.5340 C.3   192  TYR192      0.0560
     62  CG         5.2500  -13.7170  -27.3040 C.ar  192  TYR192     -0.0198
     63  CD1        4.7120  -13.4780  -26.0470 C.ar  192  TYR192     -0.0009
     64  CD2        6.3380  -14.5790  -27.3990 C.ar  192  TYR192     -0.0009
     65  CE1        5.2420  -14.0740  -24.9130 C.ar  192  TYR192      0.0417
     66  CE2        6.8810  -15.1760  -26.2670 C.ar  192  TYR192      0.0417
     67  CZ         6.3220  -14.9230  -25.0310 C.ar  192  TYR192      0.1957
     68  OH         6.8480  -15.5150  -23.9080 O.3   192  TYR192     -0.2866
     69  N          3.7620   -8.7150  -24.7830 N.3   217  TYR217     -0.1227
     70  CA         2.6520   -8.9640  -25.6940 C.3   217  TYR217      0.1740
     71  C          2.2200   -7.5990  -26.1840 C.2   217  TYR217      0.2635
     72  O          2.0720   -6.6680  -25.3900 O.2   217  TYR217     -0.2714
     73  CB         1.4540   -9.5430  -24.9340 C.3   217  TYR217      0.0548
     74  CG         1.6310  -10.9180  -24.3390 C.ar  217  TYR217     -0.0200
     75  CD1        2.4880  -11.1320  -23.2680 C.ar  217  TYR217     -0.0009
     76  CD2        0.9030  -11.9980  -24.8260 C.ar  217  TYR217     -0.0009
     77  CE1        2.6380  -12.3940  -22.7170 C.ar  217  TYR217      0.0417
     78  CE2        1.0410  -13.2580  -24.2810 C.ar  217  TYR217      0.0417
     79  CZ         1.9090  -13.4510  -23.2270 C.ar  217  TYR217      0.1957
     80  OH         2.0480  -14.7050  -22.6850 O.3   217  TYR217     -0.2866
     81  N          1.9770   -7.4560  -27.4710 N.am  218  GLY218     -0.1732
     82  CA         1.5740   -6.1530  -27.9390 C.2   218  GLY218      0.1340
     83  C          0.9220   -6.1230  -29.2920 C.2   218  GLY218      0.2521
     84  O          0.7710   -7.1520  -29.9600 O.2   218  GLY218     -0.2816
@<TRIPOS>BOND
     1     7     6    1
     2     7     1    1
     3     6     5    1
     4     1     2    1
     5     4     3    2
     6     5     2    1
     7     2     3    1
     8     3     8   am
     9     8     9    1
    10    12     9    1
    11    12    13    1
    12     9    10    1
    13    36    35    1
    14    36    37    2
    15    38    35    1
    16    35    34    1
    17    14    13   ar
    18    14    16   ar
    19    13    15   ar
    20    10    11    2
    21    33    32    2
    22    16    17   ar
    23    34    32   am
    24    15    17   ar
    25    15    18   ar
    26    32    31    1
    27    17    19   ar
    28    18    20   ar
    29    31    30    1
    30    30    24   am
    31    45    39    1
    32    45    44    1
    33    19    21   ar
    34    20    21   ar
    35    29    27    1
    36    39    40    1
    37    42    41    2
    38    44    43    1
    39    24    23    1
    40    24    25    2
    41    23    26    1
    42    23    22    1
    43    26    27    1
    44    41    40    1
    45    41    46   am
    46    27    28    1
    47    40    43    1
    48    50    47    1
    49    50    51    1
    50    46    47    1
    51    47    48    1
    52    53    51   ar
    53    53    55   ar
    54    51    52   ar
    55    55    56   ar
    56    48    57   am
    57    48    49    2
    58    57    58    1
    59    84    83    2
    60    52    54   ar
    61    60    59    2
    62    83    82    1
    63    56    54   ar
    64    58    59    1
    65    58    61    1
    66    61    62    1
    67    82    81    2
    68    81    71    1
    69    64    62   ar
    70    64    66   ar
    71    62    63   ar
    72    66    67   ar
    73    71    70    1
    74    71    72    2
    75    63    65   ar
    76    70    73    1
    77    70    69    1
    78    67    65   ar
    79    67    68    1
    80    73    74    1
    81    76    74   ar
    82    76    78   ar
    83    74    75   ar
    84    78    79   ar
    85    75    77   ar
    86    79    77   ar
    87    79    80    1
