@<TRIPOS>MOLECULE
tmp/2vdjA00.pdb
 124 119 0 0 0
SMALL
GASTEIGER

@<TRIPOS>ATOM
      1  N        -36.2650   -9.8420    9.4110 N.3    28  MET28      -0.1231
      2  CA       -35.8440   -8.7030    8.5830 C.3    28  MET28       0.1687
      3  C        -36.8930   -7.6020    8.4680 C.2    28  MET28       0.2434
      4  O        -38.0970   -7.8680    8.5290 O.2    28  MET28      -0.2733
      5  CB       -35.4450   -9.1660    7.1820 C.3    28  MET28       0.0400
      6  CG       -34.0720   -9.8120    7.0900 C.3    28  MET28       0.0596
      7  SD       -32.6970   -8.6630    7.3000 S.3    28  MET28      -0.1393
      8  CE       -32.7710   -7.6950    5.7880 C.3    28  MET28       0.0692
      9  N        -36.4140   -6.3670    8.2980 N.am   29  PRO29      -0.2729
     10  CA       -37.2630   -5.1940    8.0790 C.3    29  PRO29       0.1401
     11  C        -38.0060   -5.2840    6.7430 C.2    29  PRO29       0.2269
     12  O        -39.2140   -5.0400    6.6720 O.2    29  PRO29      -0.2865
     13  CB       -36.3060   -4.0190    8.0870 C.3    29  PRO29       0.0296
     14  CG       -34.9570   -4.4460    8.3610 C.3    29  PRO29       0.0237
     15  CD       -34.9450   -5.9530    8.2830 C.3    29  PRO29       0.0939
     16  N        -31.4440  -12.4080    9.1430 N.3    79  GLY79      -0.1210
     17  CA       -30.8230  -11.2640    9.7980 C.3    79  GLY79       0.1956
     18  C        -31.8710  -10.3520   10.4070 C.2    79  GLY79       0.2612
     19  O        -33.0780  -10.5620   10.2260 O.2    79  GLY79      -0.2717
     20  N        -31.4150   -9.3350   11.1330 N.am   80  ALA80      -0.1966
     21  CA       -32.3100   -8.4160   11.8340 C.3    80  ALA80       0.1713
     22  C        -31.6360   -7.0560   12.0000 C.2    80  ALA80       0.2458
     23  O        -30.4060   -6.9830   12.0500 O.2    80  ALA80      -0.2730
     24  CB       -32.7050   -8.9870   13.1870 C.3    80  ALA80       0.0333
     25  N        -32.4320   -5.9760   12.0890 N.am   81  PRO81      -0.2727
     26  CA       -31.8670   -4.6190   12.1640 C.3    81  PRO81       0.1402
     27  C        -31.4330   -4.1820   13.5770 C.2    81  PRO81       0.2269
     28  O        -31.5970   -3.0140   13.9290 O.2    81  PRO81      -0.2865
     29  CB       -33.0350   -3.7540   11.6890 C.3    81  PRO81       0.0296
     30  CG       -34.2440   -4.4780   12.2210 C.3    81  PRO81       0.0237
     31  CD       -33.9110   -5.9530   12.1130 C.3    81  PRO81       0.0939
     32  N        -28.2360   -5.1100   15.2870 N.3    83  GLU83      -0.1245
     33  CA       -26.8390   -5.4890   15.5540 C.3    83  GLU83       0.1567
     34  C        -26.0330   -4.6050   16.5170 C.2    83  GLU83       0.2260
     35  O        -25.0640   -5.0800   17.1050 O.2    83  GLU83      -0.2867
     36  CB       -26.0650   -5.6580   14.2410 C.3    83  GLU83       0.0388
     37  CG       -25.8040   -4.3470   13.5080 C.3    83  GLU83       0.1160
     38  CD       -24.9970   -4.5200   12.2400 C.2    83  GLU83       0.3649
     39  OE1      -24.2510   -5.5170   12.1280 O.co2  83  GLU83      -0.2457
     40  OE2      -25.1090   -3.6470   11.3530 O.co2  83  GLU83      -0.2457
     41  N        -26.4940  -13.6180    8.8730 N.3   114  CYS114     -0.1235
     42  CA       -26.0090  -12.3460    9.4220 C.3   114  CYS114      0.1677
     43  C        -26.2160  -12.2220   10.9430 C.2   114  CYS114      0.2270
     44  O        -25.5960  -12.9660   11.6950 O.2   114  CYS114     -0.2867
     45  CB       -26.5800  -11.1500    8.6440 C.3   114  CYS114      0.0956
     46  SG       -25.6260   -9.6100    8.8180 S.3   114  CYS114     -0.0801
     47  N        -19.2090    0.5190    7.9480 N.3   135  LYS135     -0.1245
     48  CA       -19.9430   -0.6540    7.4880 C.3   135  LYS135      0.1561
     49  C        -19.0920   -1.5280    6.5640 C.2   135  LYS135      0.2260
     50  O        -18.4390   -1.0210    5.6460 O.2   135  LYS135     -0.2867
     51  CB       -21.2450   -0.2530    6.7810 C.3   135  LYS135      0.0271
     52  CG       -22.2870   -1.3610    6.7700 C.3   135  LYS135      0.0035
     53  CD       -23.5230   -0.9830    5.9800 C.3   135  LYS135      0.0206
     54  CE       -24.6000   -2.0280    6.1740 C.3   135  LYS135      0.1093
     55  NZ       -25.9020   -1.6430    5.5700 N.3   135  LYS135     -0.1314
     56  N        -23.0270   -7.0770    4.5700 N.3   164  SER164     -0.1202
     57  CA       -23.7050   -5.8380    4.9020 C.3   164  SER164      0.2020
     58  C        -23.9280   -5.7970    6.4140 C.2   164  SER164      0.2619
     59  O        -24.8980   -6.3650    6.9230 O.2   164  SER164     -0.2717
     60  CB       -25.0350   -5.7640    4.1440 C.3   164  SER164      0.2103
     61  OG       -25.6610   -4.5130    4.3410 O.3   164  SER164     -0.2182
     62  N        -23.0160   -5.1330    7.1280 N.am  165  ARG165     -0.1965
     63  CA       -23.0150   -5.1460    8.5950 C.3   165  ARG165      0.1729
     64  C        -22.0550   -4.1290    9.2160 C.2   165  ARG165      0.2616
     65  O        -20.9640   -3.8840    8.6850 O.2   165  ARG165     -0.2715
     66  CB       -22.6940   -6.5590    9.1220 C.3   165  ARG165      0.0348
     67  CG       -21.4240   -7.1680    8.5290 C.3   165  ARG165      0.0492
     68  CD       -21.2140   -8.6230    8.9550 C.3   165  ARG165      0.2205
     69  NE       -20.1410   -9.2390    8.1780 N.pl3 165  ARG165     -0.0865
     70  CZ       -18.8390   -9.0810    8.4180 C.cat 165  ARG165      0.5346
     71  NH1      -18.4180   -8.3240    9.4260 N.pl3 165  ARG165      0.1354
     72  NH2      -17.9510   -9.6820    7.6410 N.pl3 165  ARG165      0.1354
     73  N        -22.4680   -3.5560   10.3500 N.am  166  HIS166     -0.1973
     74  CA       -21.6300   -2.6400   11.1250 C.3   166  HIS166      0.1656
     75  C        -20.9370   -3.3380   12.3010 C.2   166  HIS166      0.2291
     76  O        -20.3180   -2.6840   13.1440 O.2   166  HIS166     -0.2864
     77  CB       -22.4530   -1.4680   11.6660 C.3   166  HIS166      0.0771
     78  CG       -22.9650   -0.5430   10.6090 C.ar  166  HIS166      0.0820
     79  ND1      -22.2870    0.5920   10.2240 N.ar  166  HIS166     -0.2267
     80  CD2      -24.1020   -0.5710    9.8740 C.ar  166  HIS166      0.1154
     81  CE1      -22.9810    1.2180    9.2890 C.ar  166  HIS166      0.1986
     82  NE2      -24.0860    0.5320    9.0580 N.ar  166  HIS166     -0.2212
     83  N        -24.3430  -12.1600    3.2510 N.3   207  HIS207     -0.1241
     84  CA       -25.7230  -12.1770    2.7550 C.3   207  HIS207      0.1621
     85  C        -25.8190  -12.8000    1.3650 C.2   207  HIS207      0.2264
     86  O        -26.0630  -12.1110    0.3750 O.2   207  HIS207     -0.2867
     87  CB       -26.2920  -10.7570    2.7390 C.3   207  HIS207      0.0745
     88  CG       -26.8580  -10.3060    4.0500 C.ar  207  HIS207      0.0817
     89  ND1      -28.0180  -10.8290    4.5780 N.ar  207  HIS207     -0.2268
     90  CD2      -26.4470   -9.3510    4.9180 C.ar  207  HIS207      0.1154
     91  CE1      -28.2980  -10.2190    5.7160 C.ar  207  HIS207      0.1986
     92  NE2      -27.3570   -9.3210    5.9470 N.ar  207  HIS207     -0.2212
     93  N        -28.9580  -12.2400   -0.8770 N.3   210  TYR210     -0.1241
     94  CA       -29.2430  -10.9420   -1.4640 C.3   210  TYR210      0.1605
     95  C        -29.4460  -11.0510   -2.9700 C.2   210  TYR210      0.2264
     96  O        -28.7260  -11.7760   -3.6560 O.2   210  TYR210     -0.2867
     97  CB       -28.1360   -9.9400   -1.1260 C.3   210  TYR210      0.0534
     98  CG       -28.3550   -9.1970    0.1780 C.ar  210  TYR210     -0.0201
     99  CD1      -29.2920   -9.6430    1.1140 C.ar  210  TYR210     -0.0009
    100  CD2      -27.6120   -8.0590    0.4840 C.ar  210  TYR210     -0.0009
    101  CE1      -29.4970   -8.9720    2.3000 C.ar  210  TYR210      0.0417
    102  CE2      -27.8050   -7.3750    1.6790 C.ar  210  TYR210      0.0417
    103  CZ       -28.7520   -7.8410    2.5790 C.ar  210  TYR210      0.1957
    104  OH       -28.9600   -7.1740    3.7590 O.3   210  TYR210     -0.2866
    105  N        -30.0300   -0.5310    0.0000 N.3   218  GLU218     -0.1245
    106  CA       -29.4710   -0.2150    1.3200 C.3   218  GLU218      0.1567
    107  C        -28.6320    1.0560    1.2630 C.2   218  GLU218      0.2260
    108  O        -28.7410    1.9140    2.1380 O.2   218  GLU218     -0.2867
    109  CB       -28.6420   -1.3810    1.8670 C.3   218  GLU218      0.0388
    110  CG       -29.4860   -2.5740    2.3050 C.3   218  GLU218      0.1160
    111  CD       -28.6690   -3.7250    2.8470 C.2   218  GLU218      0.3649
    112  OE1      -27.4290   -3.7020    2.7040 O.co2 218  GLU218     -0.2457
    113  OE2      -29.2740   -4.6610    3.4180 O.co2 218  GLU218     -0.2457
    114  N        -31.0420    3.9970    0.8240 N.3   221  ARG221     -0.1245
    115  CA       -31.8140    4.1410    2.0610 C.3   221  ARG221      0.1563
    116  C        -31.0240    4.9070    3.1260 C.2   221  ARG221      0.2260
    117  O        -31.5390    5.8580    3.7280 O.2   221  ARG221     -0.2867
    118  CB       -32.2320    2.7660    2.5870 C.3   221  ARG221      0.0307
    119  CG       -32.9040    2.7690    3.9610 C.3   221  ARG221      0.0489
    120  CD       -32.7260    1.4160    4.6380 C.3   221  ARG221      0.2205
    121  NE       -31.3110    1.1220    4.8690 N.pl3 221  ARG221     -0.0865
    122  CZ       -30.8290   -0.0670    5.2220 C.cat 221  ARG221      0.5346
    123  NH1      -31.6490   -1.0990    5.3850 N.pl3 221  ARG221      0.1354
    124  NH2      -29.5210   -0.2220    5.4140 N.pl3 221  ARG221      0.1354
@<TRIPOS>BOND
     1    96    95    2
     2    95    94    1
     3    94    97    1
     4    94    93    1
     5    97    98    1
     6   105   106    1
     7    98   100   ar
     8    98    99   ar
     9    86    85    2
    10   100   102   ar
    11   114   115    1
    12    99   101   ar
    13   107   106    1
    14   107   108    2
    15   106   109    1
    16    85    84    1
    17   102   103   ar
    18   109   110    1
    19   115   118    1
    20   115   116    1
    21   101   103   ar
    22   110   111    1
    23   103   104    1
    24   118   119    1
    25   112   111   ar
    26    87    84    1
    27    87    88    1
    28    84    83    1
    29   111   113   ar
    30   116   117    2
    31   119   120    1
    32    88    89   ar
    33    88    90   ar
    34    60    61    1
    35    60    57    1
    36    56    57    1
    37    89    91   ar
    38   120   121    1
    39   121   122    2
    40    57    58    1
    41    90    92   ar
    42   122   123    1
    43   122   124    1
    44    55    54    1
    45    50    49    2
    46    91    92   ar
    47     8     7    1
    48    53    54    1
    49    53    52    1
    50    58    59    2
    51    58    62   am
    52    49    48    1
    53    12    11    2
    54    11    10    1
    55    52    51    1
    56    51    48    1
    57     6     5    1
    58     6     7    1
    59    62    63    1
    60     5     2    1
    61    48    47    1
    62    72    70    1
    63    10    13    1
    64    10     9    1
    65    13    14    1
    66    69    70    2
    67    69    68    1
    68    15     9    1
    69    15    14    1
    70     9     3   am
    71    70    71    1
    72     3     4    2
    73     3     2    1
    74    67    68    1
    75    67    66    1
    76     2     1    1
    77    63    66    1
    78    63    64    1
    79    45    46    1
    80    45    42    1
    81    65    64    2
    82    41    42    1
    83    82    81   ar
    84    82    80   ar
    85    16    17    1
    86    64    73   am
    87    81    79   ar
    88    42    43    1
    89    17    18    1
    90    80    78   ar
    91    79    78   ar
    92    19    18    2
    93    73    74    1
    94    18    20   am
    95    78    77    1
    96    43    44    2
    97    74    77    1
    98    74    75    1
    99    20    21    1
   100    40    38   ar
   101    29    26    1
   102    29    30    1
   103    21    22    1
   104    21    24    1
   105    22    23    2
   106    22    25   am
   107    25    31    1
   108    25    26    1
   109    31    30    1
   110    39    38   ar
   111    26    27    1
   112    38    37    1
   113    75    76    2
   114    37    36    1
   115    27    28    2
   116    36    33    1
   117    32    33    1
   118    33    34    1
   119    34    35    2
