@<TRIPOS>MOLECULE
tmp/2vdmA01.pdb
 88 87 0 0 0
SMALL
GASTEIGER

@<TRIPOS>ATOM
      1  N         89.9180   37.9360   69.8190 N.3   159  ASP159     -0.1225
      2  CA        90.0330   37.1190   71.0350 C.3   159  ASP159      0.1805
      3  C         91.2920   36.2500   71.0380 C.2   159  ASP159      0.2598
      4  O         91.2710   35.0970   71.4650 O.2   159  ASP159     -0.2718
      5  CB        88.7800   36.2560   71.2310 C.3   159  ASP159      0.1424
      6  CG        87.5230   37.0860   71.4240 C.2   159  ASP159      0.3668
      7  OD1       87.5210   37.9670   72.3090 O.co2 159  ASP159     -0.2456
      8  OD2       86.5320   36.8510   70.6980 O.co2 159  ASP159     -0.2456
      9  N         92.3840   36.8160   70.5450 N.am  160  PHE160     -0.1962
     10  CA        93.6900   36.1720   70.6020 C.3   160  PHE160      0.1771
     11  C         93.7520   34.8160   69.9030 C.2   160  PHE160      0.2620
     12  O         94.5450   33.9530   70.2770 O.2   160  PHE160     -0.2715
     13  CB        94.1460   36.0700   72.0590 C.3   160  PHE160      0.0574
     14  CG        94.1520   37.3880   72.7580 C.ar  160  PHE160     -0.0200
     15  CD1       93.0920   37.7640   73.5580 C.ar  160  PHE160     -0.0042
     16  CD2       95.2030   38.2760   72.5650 C.ar  160  PHE160     -0.0042
     17  CE1       93.0900   38.9860   74.1790 C.ar  160  PHE160     -0.0003
     18  CE2       95.2130   39.5060   73.1800 C.ar  160  PHE160     -0.0003
     19  CZ        94.1590   39.8670   73.9880 C.ar  160  PHE160     -0.0000
     20  N         92.9350   34.6460   68.8670 N.am  161  SER161     -0.1950
     21  CA        92.9690   33.4310   68.0710 C.3   161  SER161      0.1924
     22  C         94.1370   33.5140   67.0930 C.2   161  SER161      0.2314
     23  O         94.5150   34.6000   66.6600 O.2   161  SER161     -0.2863
     24  CB        91.6440   33.2240   67.3290 C.3   161  SER161      0.2116
     25  OG        91.4780   34.1800   66.2960 O.3   161  SER161     -0.2180
     26  N         99.9690   29.6720   69.8510 N.3   189  TYR189     -0.1227
     27  CA        98.5340   29.8600   70.0650 C.3   189  TYR189      0.1736
     28  C         98.2190   30.2480   71.5060 C.2   189  TYR189      0.2595
     29  O         97.3880   29.6250   72.1700 O.2   189  TYR189     -0.2718
     30  CB        97.7530   28.6140   69.6260 C.3   189  TYR189      0.0548
     31  CG        97.9460   28.2690   68.1600 C.ar  189  TYR189     -0.0200
     32  CD1       97.7850   29.2370   67.1690 C.ar  189  TYR189     -0.0009
     33  CD2       98.2870   26.9780   67.7620 C.ar  189  TYR189     -0.0009
     34  CE1       97.9640   28.9300   65.8330 C.ar  189  TYR189      0.0417
     35  CE2       98.4640   26.6640   66.4220 C.ar  189  TYR189      0.0417
     36  CZ        98.2990   27.6450   65.4650 C.ar  189  TYR189      0.1957
     37  OH        98.4710   27.3490   64.1330 O.3   189  TYR189     -0.2866
     38  N         98.8980   31.3010   71.9580 N.am  190  TYR190     -0.1976
     39  CA        98.8070   31.8060   73.3280 C.3   190  TYR190      0.1639
     40  C         99.0800   30.7130   74.3640 C.2   190  TYR190      0.2290
     41  O         98.2730   30.4700   75.2530 O.2   190  TYR190     -0.2864
     42  CB        97.4530   32.4840   73.5690 C.3   190  TYR190      0.0560
     43  CG        97.5450   33.7440   74.4040 C.ar  190  TYR190     -0.0198
     44  CD1       97.7900   33.6840   75.7700 C.ar  190  TYR190     -0.0009
     45  CD2       97.3880   34.9980   73.8230 C.ar  190  TYR190     -0.0009
     46  CE1       97.8760   34.8380   76.5330 C.ar  190  TYR190      0.0417
     47  CE2       97.4690   36.1550   74.5810 C.ar  190  TYR190      0.0417
     48  CZ        97.7140   36.0690   75.9320 C.ar  190  TYR190      0.1957
     49  OH        97.7970   37.2150   76.6830 O.3   190  TYR190     -0.2866
     50  N         99.1000   27.4780   74.2480 N.3   192  LEU192     -0.1245
     51  CA        98.6090   26.1240   73.9730 C.3   192  LEU192      0.1561
     52  C         99.7750   25.2380   73.5770 C.2   192  LEU192      0.2260
     53  O         99.9770   24.1510   74.1340 O.2   192  LEU192     -0.2867
     54  CB        97.6090   26.1050   72.8120 C.3   192  LEU192      0.0270
     55  CG        96.1340   25.9380   73.1570 C.3   192  LEU192      0.0019
     56  CD1       95.6160   27.1980   73.8330 C.3   192  LEU192      0.0001
     57  CD2       95.3410   25.6150   71.9020 C.3   192  LEU192      0.0001
     58  N         94.9570   25.8920   66.2290 N.3   224  ASP224     -0.1225
     59  CA        94.5540   26.5640   67.4530 C.3   224  ASP224      0.1805
     60  C         93.2850   25.8780   67.9520 C.2   224  ASP224      0.2598
     61  O         92.5940   25.1960   67.1860 O.2   224  ASP224     -0.2718
     62  CB        94.3100   28.0590   67.1830 C.3   224  ASP224      0.1424
     63  CG        94.1980   28.8890   68.4620 C.2   224  ASP224      0.3668
     64  OD1       94.3060   28.3200   69.5690 O.co2 224  ASP224     -0.2456
     65  OD2       93.9970   30.1180   68.3600 O.co2 224  ASP224     -0.2456
     66  N         92.9950   26.0480   69.2370 N.am  225  SER225     -0.1938
     67  CA        91.8180   25.4520   69.8500 C.3   225  SER225      0.2055
     68  C         91.2990   26.3260   70.9800 C.2   225  SER225      0.2643
     69  O         92.0680   27.0410   71.6250 O.2   225  SER225     -0.2714
     70  CB        92.1610   24.0690   70.3950 C.3   225  SER225      0.2130
     71  OG        91.0630   23.5200   71.1030 O.3   225  SER225     -0.2179
     72  N         89.9950   26.2590   71.2230 N.am  226  SER226     -0.1949
     73  CA        89.3820   26.9770   72.3360 C.3   226  SER226      0.1924
     74  C         88.8480   25.9860   73.3730 C.2   226  SER226      0.2314
     75  O         87.8770   26.2690   74.0720 O.2   226  SER226     -0.2863
     76  CB        88.2720   27.8850   71.8200 C.3   226  SER226      0.2116
     77  OG        87.3040   27.1250   71.1260 O.3   226  SER226     -0.2180
     78  N         94.6980   24.6840   77.1940 N.3   231  PHE231     -0.1241
     79  CA        95.2130   26.0020   77.5860 C.3   231  PHE231      0.1605
     80  C         96.4440   25.8890   78.4730 C.2   231  PHE231      0.2264
     81  O         96.4380   25.1370   79.4410 O.2   231  PHE231     -0.2867
     82  CB        94.1380   26.7930   78.3420 C.3   231  PHE231      0.0534
     83  CG        93.0180   27.3210   77.4760 C.ar  231  PHE231     -0.0203
     84  CD1       92.0560   28.1580   78.0350 C.ar  231  PHE231     -0.0042
     85  CD2       92.9210   27.0100   76.1190 C.ar  231  PHE231     -0.0042
     86  CE1       91.0120   28.6570   77.2730 C.ar  231  PHE231     -0.0003
     87  CE2       91.8810   27.5130   75.3500 C.ar  231  PHE231     -0.0003
     88  CZ        90.9250   28.3360   75.9280 C.ar  231  PHE231     -0.0000
@<TRIPOS>BOND
     1    37    36    1
     2    36    34   ar
     3    36    35   ar
     4    34    32   ar
     5    58    59    1
     6    25    24    1
     7    35    33   ar
     8    23    22    2
     9    22    21    1
    10    32    31   ar
    11    62    59    1
    12    62    63    1
    13    61    60    2
    14    24    21    1
    15    59    60    1
    16    33    31   ar
    17    60    66   am
    18    21    20    1
    19    31    30    1
    20    65    63   ar
    21    63    64   ar
    22    20    11   am
    23    66    67    1
    24    30    27    1
    25     1     2    1
    26    67    70    1
    27    67    68    1
    28    26    27    1
    29    11    12    2
    30    11    10    1
    31    27    28    1
    32    70    71    1
    33     9    10    1
    34     9     3   am
    35    10    13    1
    36     8     6   ar
    37    68    72   am
    38    68    69    2
    39     2     3    1
    40     2     5    1
    41     3     4    2
    42    77    76    1
    43    72    73    1
    44     5     6    1
    45     6     7   ar
    46    28    38   am
    47    28    29    2
    48    76    73    1
    49    57    55    1
    50    38    39    1
    51    13    14    1
    52    73    74    1
    53    16    14   ar
    54    16    18   ar
    55    14    15   ar
    56    54    55    1
    57    54    51    1
    58    55    56    1
    59    18    19   ar
    60    39    42    1
    61    39    40    1
    62    74    75    2
    63    15    17   ar
    64    42    43    1
    65    52    51    1
    66    52    53    2
    67    45    43   ar
    68    45    47   ar
    69    51    50    1
    70    19    17   ar
    71    40    41    2
    72    43    44   ar
    73    47    48   ar
    74    87    88   ar
    75    87    85   ar
    76    44    46   ar
    77    88    86   ar
    78    48    46   ar
    79    48    49    1
    80    85    83   ar
    81    78    79    1
    82    86    84   ar
    83    83    84   ar
    84    83    82    1
    85    79    82    1
    86    79    80    1
    87    80    81    2
