@<TRIPOS>MOLECULE
tmp/2vdmB00.pdb
 96 93 0 0 0
SMALL
GASTEIGER

@<TRIPOS>ATOM
      1  N         97.9420   40.7130   90.0330 N.3   116  SER116     -0.1202
      2  CA        97.9600   40.7340   88.5700 C.3   116  SER116      0.2020
      3  C         96.6380   41.3060   88.0530 C.2   116  SER116      0.2619
      4  O         95.6750   41.4360   88.8070 O.2   116  SER116     -0.2717
      5  CB        98.1810   39.3230   88.0180 C.3   116  SER116      0.2103
      6  OG        97.0010   38.5400   88.0950 O.3   116  SER116     -0.2182
      7  N         96.5900   41.6310   86.7650 N.am  117  TYR117     -0.1961
      8  CA        95.4420   42.3450   86.1940 C.3   117  TYR117      0.1771
      9  C         94.1290   41.5560   86.2220 C.2   117  TYR117      0.2620
     10  O         93.0450   42.1530   86.2710 O.2   117  TYR117     -0.2715
     11  CB        95.7390   42.7950   84.7580 C.3   117  TYR117      0.0574
     12  CG        94.7850   43.8540   84.2670 C.ar  117  TYR117     -0.0198
     13  CD1       94.8740   45.1640   84.7290 C.ar  117  TYR117     -0.0009
     14  CD2       93.7820   43.5440   83.3580 C.ar  117  TYR117     -0.0009
     15  CE1       93.9940   46.1410   84.2880 C.ar  117  TYR117      0.0417
     16  CE2       92.8970   44.5110   82.9110 C.ar  117  TYR117      0.0417
     17  CZ        93.0070   45.8050   83.3780 C.ar  117  TYR117      0.1957
     18  OH        92.1250   46.7570   82.9290 O.3   117  TYR117     -0.2866
     19  N         94.2180   40.2260   86.2020 N.am  118  SER118     -0.1950
     20  CA        93.0170   39.3870   86.2730 C.3   118  SER118      0.1924
     21  C         92.2940   39.5980   87.5950 C.2   118  SER118      0.2314
     22  O         91.0880   39.3820   87.6860 O.2   118  SER118     -0.2863
     23  CB        93.3480   37.8990   86.0830 C.3   118  SER118      0.2116
     24  OG        94.2430   37.4240   87.0720 O.3   118  SER118     -0.2180
     25  N        105.2860   42.1260   79.4300 N.3   161  TYR161     -0.1241
     26  CA       105.1930   42.9200   78.2010 C.3   161  TYR161      0.1605
     27  C        106.4290   43.8060   78.1420 C.2   161  TYR161      0.2264
     28  O        106.6480   44.6250   79.0330 O.2   161  TYR161     -0.2867
     29  CB       103.9310   43.7930   78.1790 C.3   161  TYR161      0.0534
     30  CG       102.6440   43.0170   78.0620 C.ar  161  TYR161     -0.0201
     31  CD1      101.9510   42.6020   79.1950 C.ar  161  TYR161     -0.0009
     32  CD2      102.1140   42.7000   76.8200 C.ar  161  TYR161     -0.0009
     33  CE1      100.7640   41.8820   79.0900 C.ar  161  TYR161      0.0417
     34  CE2      100.9310   41.9830   76.7010 C.ar  161  TYR161      0.0417
     35  CZ       100.2620   41.5750   77.8390 C.ar  161  TYR161      0.1957
     36  OH        99.0930   40.8620   77.7260 O.3   161  TYR161     -0.2866
     37  N         96.2950   49.8390   76.6930 N.3   175  MET175     -0.1245
     38  CA        94.8720   49.8650   77.0350 C.3   175  MET175      0.1570
     39  C         94.4240   51.2990   77.3280 C.2   175  MET175      0.2261
     40  O         93.3020   51.5160   77.7980 O.2   175  MET175     -0.2867
     41  CB        94.5970   49.0020   78.2710 C.3   175  MET175      0.0387
     42  CG        95.3790   47.7020   78.3400 C.3   175  MET175      0.0595
     43  SD        94.7640   46.5880   79.6150 S.3   175  MET175     -0.1393
     44  CE        94.4690   47.7080   80.9850 C.3   175  MET175      0.0692
     45  N        100.0330   44.1270   85.6540 N.3   209  ARG209     -0.1231
     46  CA        99.6230   43.3280   84.4970 C.3   209  ARG209      0.1694
     47  C        100.7600   42.4790   83.9300 C.2   209  ARG209      0.2592
     48  O        101.9130   42.9020   83.9330 O.2   209  ARG209     -0.2718
     49  CB        99.0710   44.2410   83.4050 C.3   209  ARG209      0.0321
     50  CG        98.4120   43.5100   82.2440 C.3   209  ARG209      0.0489
     51  CD        98.1450   44.4560   81.0860 C.3   209  ARG209      0.2205
     52  NE        97.8360   43.7390   79.8520 N.pl3 209  ARG209     -0.0865
     53  CZ        97.7840   44.3000   78.6490 C.cat 209  ARG209      0.5346
     54  NH1       98.0230   45.5960   78.4890 N.pl3 209  ARG209      0.1354
     55  NH2       97.4890   43.5590   77.5910 N.pl3 209  ARG209      0.1354
     56  N        100.4160   41.2830   83.4490 N.am  210  ASN210     -0.1960
     57  CA       101.3620   40.3950   82.7610 C.3   210  ASN210      0.1819
     58  C        100.6580   39.5890   81.6700 C.2   210  ASN210      0.2621
     59  O         99.4360   39.5910   81.5850 O.2   210  ASN210     -0.2715
     60  CB       102.0970   39.4810   83.7590 C.3   210  ASN210      0.1195
     61  CG       101.3150   38.2210   84.1150 C.2   210  ASN210      0.2630
     62  OD1      101.8370   37.1130   84.0060 O.2   210  ASN210     -0.2716
     63  ND2      100.0720   38.3840   84.5530 N.am  210  ASN210     -0.0877
     64  N        101.4340   38.8980   80.8430 N.am  211  ARG211     -0.1963
     65  CA       100.9160   38.3270   79.5940 C.3   211  ARG211      0.1729
     66  C        100.1340   37.0170   79.7410 C.2   211  ARG211      0.2616
     67  O         99.1380   36.8270   79.0390 O.2   211  ARG211     -0.2715
     68  CB       102.0570   38.1360   78.5810 C.3   211  ARG211      0.0348
     69  CG       101.6390   37.3900   77.3170 C.3   211  ARG211      0.0492
     70  CD       102.6420   37.5320   76.1790 C.3   211  ARG211      0.2205
     71  NE       102.6060   38.8600   75.5610 N.pl3 211  ARG211     -0.0865
     72  CZ       103.6710   39.6140   75.2910 C.cat 211  ARG211      0.5346
     73  NH1      104.9050   39.2140   75.5780 N.pl3 211  ARG211      0.1354
     74  NH2      103.4980   40.7950   74.7190 N.pl3 211  ARG211      0.1354
     75  N        100.5930   36.1150   80.6150 N.am  212  ASP212     -0.1957
     76  CA       100.0210   34.7560   80.7040 C.3   212  ASP212      0.1840
     77  C         99.2360   34.4860   82.0010 C.2   212  ASP212      0.2621
     78  O         99.5950   34.9720   83.0770 O.2   212  ASP212     -0.2715
     79  CB       101.1000   33.6760   80.4610 C.3   212  ASP212      0.1450
     80  CG       102.0920   33.5280   81.6180 C.2   212  ASP212      0.3671
     81  OD1      102.3380   34.4980   82.3700 O.co2 212  ASP212     -0.2456
     82  OD2      102.6490   32.4250   81.7610 O.co2 212  ASP212     -0.2456
     83  N         98.1670   33.6970   81.8690 N.am  213  ALA213     -0.1977
     84  CA        97.1920   33.4650   82.9460 C.3   213  ALA213      0.1597
     85  C         97.7970   32.8480   84.2070 C.2   213  ALA213      0.2287
     86  O         97.4970   33.3030   85.3130 O.2   213  ALA213     -0.2864
     87  CB        96.0340   32.6030   82.4400 C.3   213  ALA213      0.0319
     88  N        100.2840   32.3960   87.1270 N.3   215  GLU215     -0.1245
     89  CA       101.0870   33.4210   87.7800 C.3   215  GLU215      0.1567
     90  C        102.1900   32.7900   88.6080 C.2   215  GLU215      0.2260
     91  O        102.2420   31.5690   88.7500 O.2   215  GLU215     -0.2867
     92  CB       100.2010   34.3140   88.6510 C.3   215  GLU215      0.0388
     93  CG        98.9220   34.8250   87.9780 C.3   215  GLU215      0.1160
     94  CD        99.1610   35.7360   86.7700 C.2   215  GLU215      0.3649
     95  OE1       98.1960   36.4190   86.3610 O.co2 215  GLU215     -0.2457
     96  OE2      100.2880   35.7810   86.2220 O.co2 215  GLU215     -0.2457
@<TRIPOS>BOND
     1    74    72    1
     2    72    71    2
     3    72    73    1
     4    71    70    1
     5    70    69    1
     6    37    38    1
     7    34    32   ar
     8    34    35   ar
     9    32    30   ar
    10    38    39    1
    11    38    41    1
    12    69    68    1
    13    39    40    2
    14    55    53    1
    15    36    35    1
    16    35    33   ar
    17    30    29    1
    18    30    31   ar
    19    27    26    1
    20    27    28    2
    21    29    26    1
    22    26    25    1
    23    41    42    1
    24    42    43    1
    25    54    53    1
    26    68    65    1
    27    53    52    2
    28    67    66    2
    29    33    31   ar
    30    65    66    1
    31    65    64    1
    32    43    44    1
    33    66    75   am
    34    52    51    1
    35    79    76    1
    36    79    80    1
    37    75    76    1
    38    76    77    1
    39    64    58   am
    40    51    50    1
    41    59    58    2
    42    80    82   ar
    43    80    81   ar
    44    58    57    1
    45    83    77   am
    46    83    84    1
    47    77    78    2
    48    50    49    1
    49    87    84    1
    50    57    56    1
    51    57    60    1
    52    16    14   ar
    53    16    17   ar
    54    18    17    1
    55    84    85    1
    56    14    12   ar
    57    17    15   ar
    58    49    46    1
    59    56    47   am
    60    60    61    1
    61    47    48    2
    62    47    46    1
    63    62    61    2
    64    61    63   am
    65    85    86    2
    66    12    13   ar
    67    12    11    1
    68    15    13   ar
    69    46    45    1
    70    11     8    1
    71    23    20    1
    72    23    24    1
    73     8     9    1
    74     8     7    1
    75    19     9   am
    76    19    20    1
    77    96    94   ar
    78     9    10    2
    79    20    21    1
    80    95    94   ar
    81     7     3   am
    82    94    93    1
    83    88    89    1
    84    21    22    2
    85    89    90    1
    86    89    92    1
    87    93    92    1
    88     5     6    1
    89     5     2    1
    90     3     2    1
    91     3     4    2
    92     2     1    1
    93    90    91    2
