@<TRIPOS>MOLECULE
tmp/2vdnB00.pdb
 121 116 0 0 0
SMALL
GASTEIGER

@<TRIPOS>ATOM
      1  N         98.4270   40.9410   89.3350 N.3   115  SER115     -0.1202
      2  CA        98.5140   40.9340   87.8770 C.3   115  SER115      0.2020
      3  C         97.2460   41.5510   87.2990 C.2   115  SER115      0.2619
      4  O         96.2980   41.8440   88.0290 O.2   115  SER115     -0.2717
      5  CB        98.7100   39.5140   87.3460 C.3   115  SER115      0.2103
      6  OG        97.5650   38.7160   87.5650 O.3   115  SER115     -0.2182
      7  N         97.2290   41.7420   85.9860 N.am  116  TYR116     -0.1961
      8  CA        96.1520   42.4850   85.3350 C.3   116  TYR116      0.1771
      9  C         94.8130   41.7460   85.3440 C.2   116  TYR116      0.2620
     10  O         93.7520   42.3800   85.3410 O.2   116  TYR116     -0.2715
     11  CB        96.5420   42.8430   83.9000 C.3   116  TYR116      0.0574
     12  CG        95.5960   43.8250   83.2600 C.ar  116  TYR116     -0.0198
     13  CD1       95.5850   45.1580   83.6480 C.ar  116  TYR116     -0.0009
     14  CD2       94.6970   43.4170   82.2810 C.ar  116  TYR116     -0.0009
     15  CE1       94.7100   46.0630   83.0710 C.ar  116  TYR116      0.0417
     16  CE2       93.8200   44.3170   81.6950 C.ar  116  TYR116      0.0417
     17  CZ        93.8310   45.6360   82.0960 C.ar  116  TYR116      0.1957
     18  OH        92.9600   46.5230   81.5180 O.3   116  TYR116     -0.2866
     19  N         94.8560   40.4160   85.3590 N.am  117  SER117     -0.1950
     20  CA        93.6290   39.6220   85.4160 C.3   117  SER117      0.1924
     21  C         92.8690   39.8490   86.7260 C.2   117  SER117      0.2314
     22  O         91.6560   39.6350   86.7920 O.2   117  SER117     -0.2863
     23  CB        93.9340   38.1380   85.2240 C.3   117  SER117      0.2116
     24  OG        94.8480   37.6830   86.2010 O.3   117  SER117     -0.2180
     25  N         92.3830   42.7440   87.9800 N.3   119  LYS119     -0.1231
     26  CA        91.7540   44.0630   87.9080 C.3   119  LYS119      0.1693
     27  C         90.3400   44.0410   88.4970 C.2   119  LYS119      0.2592
     28  O         89.9570   44.9530   89.2280 O.2   119  LYS119     -0.2718
     29  CB        91.7190   44.5400   86.4510 C.3   119  LYS119      0.0285
     30  CG        91.0600   45.8880   86.2210 C.3   119  LYS119      0.0035
     31  CD        91.0870   46.2710   84.7390 C.3   119  LYS119      0.0206
     32  CE        90.4980   47.6660   84.5020 C.3   119  LYS119      0.1093
     33  NZ        91.1600   48.7330   85.3320 N.3   119  LYS119     -0.1314
     34  N         89.5810   42.9920   88.1800 N.am  120  ASP120     -0.1974
     35  CA        88.2000   42.8380   88.6580 C.3   120  ASP120      0.1709
     36  C         88.0950   42.0990   90.0010 C.2   120  ASP120      0.2293
     37  O         87.0490   42.1270   90.6460 O.2   120  ASP120     -0.2864
     38  CB        87.3520   42.1140   87.6030 C.3   120  ASP120      0.1436
     39  CG        87.7940   40.6690   87.3720 C.2   120  ASP120      0.3671
     40  OD1       88.9980   40.3730   87.5520 O.co2 120  ASP120     -0.2456
     41  OD2       86.9400   39.8320   86.9980 O.co2 120  ASP120     -0.2456
     42  N        106.0400   42.4630   78.7310 N.3   160  TYR160     -0.1241
     43  CA       106.0020   43.2720   77.5100 C.3   160  TYR160      0.1605
     44  C        107.2640   44.1320   77.4770 C.2   160  TYR160      0.2264
     45  O        107.5500   44.8600   78.4300 O.2   160  TYR160     -0.2867
     46  CB       104.7590   44.1680   77.4580 C.3   160  TYR160      0.0534
     47  CG       103.4650   43.4070   77.3610 C.ar  160  TYR160     -0.0201
     48  CD1      102.6770   43.1870   78.4910 C.ar  160  TYR160     -0.0009
     49  CD2      103.0260   42.8940   76.1410 C.ar  160  TYR160     -0.0009
     50  CE1      101.4820   42.4730   78.4110 C.ar  160  TYR160      0.0417
     51  CE2      101.8330   42.1810   76.0460 C.ar  160  TYR160      0.0417
     52  CZ       101.0660   41.9740   77.1870 C.ar  160  TYR160      0.1957
     53  OH        99.8880   41.2700   77.1090 O.3   160  TYR160     -0.2866
     54  N        100.6320   44.4550   85.0960 N.3   208  ARG208     -0.1231
     55  CA       100.2420   43.6820   83.9140 C.3   208  ARG208      0.1694
     56  C        101.3850   42.8590   83.3190 C.2   208  ARG208      0.2592
     57  O        102.5280   43.3020   83.2850 O.2   208  ARG208     -0.2718
     58  CB        99.6680   44.6120   82.8420 C.3   208  ARG208      0.0321
     59  CG        99.1810   43.8960   81.5910 C.3   208  ARG208      0.0489
     60  CD        98.6810   44.8660   80.5420 C.3   208  ARG208      0.2205
     61  NE        98.6070   44.2320   79.2270 N.pl3 208  ARG208     -0.0865
     62  CZ        98.5100   44.8870   78.0730 C.cat 208  ARG208      0.5346
     63  NH1       98.4680   46.2090   78.0450 N.pl3 208  ARG208      0.1354
     64  NH2       98.4540   44.2150   76.9340 N.pl3 208  ARG208      0.1354
     65  N        101.0570   41.6550   82.8590 N.am  209  ASN209     -0.1960
     66  CA       101.9760   40.8380   82.0710 C.3   209  ASN209      0.1819
     67  C        101.2150   40.1040   80.9580 C.2   209  ASN209      0.2621
     68  O        100.0200   40.3340   80.7740 O.2   209  ASN209     -0.2715
     69  CB       102.7930   39.8940   82.9720 C.3   209  ASN209      0.1195
     70  CG       102.0460   38.6260   83.3540 C.2   209  ASN209      0.2630
     71  OD1      102.5640   37.5240   83.1800 O.2   209  ASN209     -0.2716
     72  ND2      100.8390   38.7730   83.8910 N.am  209  ASN209     -0.0877
     73  N        101.9040   39.2450   80.2100 N.am  210  ARG210     -0.1963
     74  CA       101.3360   38.6710   78.9850 C.3   210  ARG210      0.1729
     75  C        100.5760   37.3570   79.1880 C.2   210  ARG210      0.2616
     76  O         99.4630   37.2090   78.6830 O.2   210  ARG210     -0.2715
     77  CB       102.4230   38.4750   77.9160 C.3   210  ARG210      0.0348
     78  CG       101.8540   38.1110   76.5390 C.3   210  ARG210      0.0492
     79  CD       102.9280   37.8080   75.4960 C.3   210  ARG210      0.2205
     80  NE       103.2360   38.9550   74.6340 N.pl3 210  ARG210     -0.0865
     81  CZ       104.3260   39.7170   74.7070 C.cat 210  ARG210      0.5346
     82  NH1      105.2610   39.4950   75.6200 N.pl3 210  ARG210      0.1354
     83  NH2      104.4820   40.7200   73.8530 N.pl3 210  ARG210      0.1354
     84  N        101.1760   36.4010   79.8940 N.am  211  ASP211     -0.1957
     85  CA       100.6050   35.0500   79.9710 C.3   211  ASP211      0.1840
     86  C         99.7840   34.8120   81.2440 C.2   211  ASP211      0.2621
     87  O        100.1000   35.3460   82.3130 O.2   211  ASP211     -0.2715
     88  CB       101.6880   33.9720   79.7750 C.3   211  ASP211      0.1450
     89  CG       102.6170   33.8230   80.9680 C.2   211  ASP211      0.3671
     90  OD1      102.7910   34.7850   81.7410 O.co2 211  ASP211     -0.2456
     91  OD2      103.1970   32.7330   81.1240 O.co2 211  ASP211     -0.2456
     92  N         98.7310   34.0040   81.1060 N.am  212  ALA212     -0.1977
     93  CA        97.7700   33.7600   82.1860 C.3   212  ALA212      0.1597
     94  C         98.4160   33.1700   83.4400 C.2   212  ALA212      0.2287
     95  O         98.1560   33.6500   84.5450 O.2   212  ALA212     -0.2864
     96  CB        96.6370   32.8660   81.6990 C.3   212  ALA212      0.0319
     97  N        100.8730   32.7700   86.3500 N.3   214  GLU214     -0.1245
     98  CA       101.6970   33.7720   87.0200 C.3   214  GLU214      0.1567
     99  C        102.7870   33.1300   87.8720 C.2   214  GLU214      0.2260
    100  O        102.8610   31.9070   87.9770 O.2   214  GLU214     -0.2867
    101  CB       100.8210   34.6830   87.8840 C.3   214  GLU214      0.0388
    102  CG        99.5280   35.1770   87.2270 C.3   214  GLU214      0.1160
    103  CD        99.7340   36.1380   86.0520 C.2   214  GLU214      0.3649
    104  OE1       98.7510   36.8160   85.6840 O.co2 214  GLU214     -0.2457
    105  OE2      100.8500   36.2250   85.4900 O.co2 214  GLU214     -0.2457
    106  N         93.7330   34.1950   90.5310 N.3   245  ASP245     -0.1239
    107  CA        92.5680   33.8470   89.7140 C.3   245  ASP245      0.1674
    108  C         92.9070   32.9530   88.5150 C.2   245  ASP245      0.2266
    109  O         92.0290   32.6560   87.6980 O.2   245  ASP245     -0.2867
    110  CB        91.8520   35.1170   89.2310 C.3   245  ASP245      0.1410
    111  CG        92.6860   35.9410   88.2500 C.2   245  ASP245      0.3668
    112  OD1       93.9170   35.7390   88.1610 O.co2 245  ASP245     -0.2456
    113  OD2       92.0970   36.8090   87.5720 O.co2 245  ASP245     -0.2456
    114  N         86.9240   29.5030   89.4060 N.3   307  ASN307     -0.1240
    115  CA        87.3650   28.8990   88.1440 C.3   307  ASN307      0.1653
    116  C         88.6410   28.0370   88.2370 C.2   307  ASN307      0.2266
    117  O         88.8580   27.1800   87.3830 O.2   307  ASN307     -0.2867
    118  CB        87.5300   29.9740   87.0620 C.3   307  ASN307      0.1155
    119  CG        88.5960   30.9930   87.4090 C.2   307  ASN307      0.2627
    120  OD1       88.5760   31.5830   88.4870 O.2   307  ASN307     -0.2716
    121  ND2       89.5300   31.2050   86.4970 N.am  307  ASN307     -0.0877
@<TRIPOS>BOND
     1    83    81    1
     2    80    81    2
     3    80    79    1
     4    81    82    1
     5    79    78    1
     6    51    49   ar
     7    51    52   ar
     8    49    47   ar
     9    78    77    1
    10    64    62    1
    11    53    52    1
    12    52    50   ar
    13    47    46    1
    14    47    48   ar
    15    46    43    1
    16    44    43    1
    17    44    45    2
    18    43    42    1
    19    77    74    1
    20    63    62    1
    21    62    61    2
    22    50    48   ar
    23    76    75    2
    24    74    75    1
    25    74    73    1
    26    75    84   am
    27    61    60    1
    28    88    85    1
    29    88    89    1
    30    84    85    1
    31    85    86    1
    32    73    67   am
    33    60    59    1
    34    68    67    2
    35    67    66    1
    36    89    91   ar
    37    89    90   ar
    38    92    86   am
    39    92    93    1
    40    86    87    2
    41    18    17    1
    42    59    58    1
    43    16    17   ar
    44    16    14   ar
    45    96    93    1
    46    66    65    1
    47    66    69    1
    48    17    15   ar
    49    93    94    1
    50    14    12   ar
    51    58    55    1
    52    65    56   am
    53    69    70    1
    54    15    13   ar
    55    71    70    2
    56    12    13   ar
    57    12    11    1
    58    57    56    2
    59    56    55    1
    60    70    72   am
    61    94    95    2
    62    11     8    1
    63    55    54    1
    64    32    31    1
    65    32    33    1
    66    31    30    1
    67    23    20    1
    68    23    24    1
    69     8     9    1
    70     8     7    1
    71    10     9    2
    72     9    19   am
    73    19    20    1
    74    20    21    1
    75   105   103   ar
    76   104   103   ar
    77     7     3   am
    78   103   102    1
    79    30    29    1
    80    97    98    1
    81    29    26    1
    82   121   119   am
    83    21    22    2
    84    41    39   ar
    85    98    99    1
    86    98   101    1
    87   118   119    1
    88   118   115    1
    89   102   101    1
    90     3     2    1
    91     3     4    2
    92     5     6    1
    93     5     2    1
    94    39    40   ar
    95    39    38    1
    96   117   116    2
    97   119   120    2
    98   113   111   ar
    99    38    35    1
   100   109   108    2
   101    99   100    2
   102     2     1    1
   103    26    25    1
   104    26    27    1
   105   115   116    1
   106   115   114    1
   107   112   111   ar
   108    34    27   am
   109    34    35    1
   110   111   110    1
   111    27    28    2
   112   108   107    1
   113    35    36    1
   114   110   107    1
   115   107   106    1
   116    36    37    2
