@<TRIPOS>MOLECULE
tmp/2vdnA00.pdb
 96 95 0 0 0
SMALL
GASTEIGER

@<TRIPOS>ATOM
      1  N         90.4680   38.2430   69.0570 N.3   159  ASP159     -0.1225
      2  CA        90.5720   37.4340   70.2760 C.3   159  ASP159      0.1805
      3  C         91.8190   36.5440   70.2930 C.2   159  ASP159      0.2598
      4  O         91.7810   35.4070   70.7480 O.2   159  ASP159     -0.2718
      5  CB        89.2910   36.6080   70.4750 C.3   159  ASP159      0.1424
      6  CG        88.0420   37.4840   70.6180 C.2   159  ASP159      0.3668
      7  OD1       88.0790   38.4630   71.3970 O.co2 159  ASP159     -0.2456
      8  OD2       87.0200   37.1940   69.9530 O.co2 159  ASP159     -0.2456
      9  N         92.9220   37.0870   69.7900 N.am  160  PHE160     -0.1962
     10  CA        94.2330   36.4380   69.8300 C.3   160  PHE160      0.1771
     11  C         94.3000   35.0640   69.1500 C.2   160  PHE160      0.2620
     12  O         95.0580   34.1860   69.5670 O.2   160  PHE160     -0.2715
     13  CB        94.7330   36.3790   71.2740 C.3   160  PHE160      0.0574
     14  CG        94.8450   37.7290   71.9120 C.ar  160  PHE160     -0.0200
     15  CD1       93.7570   38.2970   72.5560 C.ar  160  PHE160     -0.0042
     16  CD2       96.0340   38.4450   71.8430 C.ar  160  PHE160     -0.0042
     17  CE1       93.8530   39.5470   73.1310 C.ar  160  PHE160     -0.0003
     18  CE2       96.1390   39.6980   72.4210 C.ar  160  PHE160     -0.0003
     19  CZ        95.0450   40.2520   73.0660 C.ar  160  PHE160     -0.0000
     20  N         93.5330   34.8990   68.0790 N.am  161  SER161     -0.1950
     21  CA        93.6050   33.6880   67.2740 C.3   161  SER161      0.1924
     22  C         94.8090   33.7400   66.3270 C.2   161  SER161      0.2314
     23  O         95.1720   34.7980   65.8160 O.2   161  SER161     -0.2863
     24  CB        92.3120   33.4920   66.4820 C.3   161  SER161      0.2116
     25  OG        92.0810   34.5870   65.6140 O.3   161  SER161     -0.2180
     26  N        100.5490   30.0030   69.1880 N.3   189  TYR189     -0.1227
     27  CA        99.1200   30.1910   69.4240 C.3   189  TYR189      0.1736
     28  C         98.8230   30.5470   70.8830 C.2   189  TYR189      0.2595
     29  O         98.0420   29.8780   71.5620 O.2   189  TYR189     -0.2718
     30  CB        98.3470   28.9490   68.9720 C.3   189  TYR189      0.0548
     31  CG        98.5740   28.5950   67.5120 C.ar  189  TYR189     -0.0200
     32  CD1       98.5690   29.5830   66.5230 C.ar  189  TYR189     -0.0009
     33  CD2       98.7880   27.2770   67.1130 C.ar  189  TYR189     -0.0009
     34  CE1       98.7780   29.2730   65.1880 C.ar  189  TYR189      0.0417
     35  CE2       98.9950   26.9590   65.7680 C.ar  189  TYR189      0.0417
     36  CZ        98.9860   27.9660   64.8150 C.ar  189  TYR189      0.1957
     37  OH        99.1870   27.6740   63.4870 O.3   189  TYR189     -0.2866
     38  N         99.4660   31.6230   71.3350 N.am  190  TYR190     -0.1976
     39  CA        99.3780   32.1190   72.7120 C.3   190  TYR190      0.1639
     40  C         99.6630   31.0190   73.7390 C.2   190  TYR190      0.2290
     41  O         98.8490   30.7370   74.6150 O.2   190  TYR190     -0.2864
     42  CB        98.0300   32.8210   72.9710 C.3   190  TYR190      0.0560
     43  CG        98.1660   34.0710   73.8220 C.ar  190  TYR190     -0.0198
     44  CD1       98.3500   33.9860   75.2000 C.ar  190  TYR190     -0.0009
     45  CD2       98.1300   35.3390   73.2450 C.ar  190  TYR190     -0.0009
     46  CE1       98.4870   35.1350   75.9840 C.ar  190  TYR190      0.0417
     47  CE2       98.2640   36.4930   74.0220 C.ar  190  TYR190      0.0417
     48  CZ        98.4430   36.3830   75.3880 C.ar  190  TYR190      0.1957
     49  OH        98.5720   37.5160   76.1610 O.3   190  TYR190     -0.2866
     50  N         99.7440   27.8530   73.5900 N.3   192  LEU192     -0.1245
     51  CA        99.1290   26.5620   73.3320 C.3   192  LEU192      0.1561
     52  C        100.2020   25.6130   72.7910 C.2   192  LEU192      0.2260
     53  O        100.3470   24.4870   73.2650 O.2   192  LEU192     -0.2867
     54  CB        97.9950   26.7530   72.3190 C.3   192  LEU192      0.0270
     55  CG        97.0460   25.6120   71.9720 C.3   192  LEU192      0.0019
     56  CD1       95.7690   26.1840   71.3630 C.3   192  LEU192      0.0001
     57  CD2       97.7010   24.6100   71.0220 C.3   192  LEU192      0.0001
     58  N         95.5820   26.0680   65.4700 N.3   224  ASP224     -0.1225
     59  CA        95.1880   26.7810   66.6740 C.3   224  ASP224      0.1805
     60  C         93.8660   26.1830   67.1490 C.2   224  ASP224      0.2598
     61  O         93.1140   25.6120   66.3560 O.2   224  ASP224     -0.2718
     62  CB        95.0450   28.2750   66.3580 C.3   224  ASP224      0.1424
     63  CG        94.7530   29.1250   67.5840 C.2   224  ASP224      0.3668
     64  OD1       94.8540   28.6290   68.7250 O.co2 224  ASP224     -0.2456
     65  OD2       94.4130   30.3100   67.3930 O.co2 224  ASP224     -0.2456
     66  N         93.5920   26.3110   68.4420 N.am  225  SER225     -0.1938
     67  CA        92.4250   25.6880   69.0440 C.3   225  SER225      0.2055
     68  C         91.8260   26.5490   70.1470 C.2   225  SER225      0.2643
     69  O         92.5150   27.3420   70.7830 O.2   225  SER225     -0.2714
     70  CB        92.8180   24.3280   69.6130 C.3   225  SER225      0.2130
     71  OG        91.7320   23.7230   70.2840 O.3   225  SER225     -0.2179
     72  N         90.5290   26.3770   70.3640 N.am  226  SER226     -0.1949
     73  CA        89.8280   27.0320   71.4600 C.3   226  SER226      0.1924
     74  C         89.4600   26.0130   72.5490 C.2   226  SER226      0.2314
     75  O         88.5690   26.2660   73.3610 O.2   226  SER226     -0.2863
     76  CB        88.5720   27.7130   70.9220 C.3   226  SER226      0.2116
     77  OG        87.7480   26.7750   70.2490 O.3   226  SER226     -0.2180
     78  N         95.3240   24.8780   76.4510 N.3   231  PHE231     -0.1227
     79  CA        95.8600   26.1920   76.8320 C.3   231  PHE231      0.1736
     80  C         97.0710   26.0850   77.7540 C.2   231  PHE231      0.2595
     81  O         97.0540   25.3260   78.7270 O.2   231  PHE231     -0.2718
     82  CB        94.8030   27.0650   77.5210 C.3   231  PHE231      0.0547
     83  CG        93.6770   27.5160   76.6270 C.ar  231  PHE231     -0.0202
     84  CD1       92.5400   28.0810   77.1920 C.ar  231  PHE231     -0.0042
     85  CD2       93.7350   27.3820   75.2410 C.ar  231  PHE231     -0.0042
     86  CE1       91.4870   28.5070   76.4040 C.ar  231  PHE231     -0.0003
     87  CE2       92.6820   27.8060   74.4440 C.ar  231  PHE231     -0.0003
     88  CZ        91.5570   28.3690   75.0270 C.ar  231  PHE231     -0.0000
     89  N         98.1070   26.8660   77.4400 N.am  232  ASP232     -0.1974
     90  CA        99.3650   26.8810   78.1920 C.3   232  ASP232      0.1709
     91  C         99.9720   25.4820   78.3110 C.2   232  ASP232      0.2293
     92  O        100.6640   25.1770   79.2850 O.2   232  ASP232     -0.2864
     93  CB        99.1540   27.5080   79.5730 C.3   232  ASP232      0.1436
     94  CG        98.6310   28.9250   79.4900 C.2   232  ASP232      0.3671
     95  OD1       99.3710   29.8020   78.9900 O.co2 232  ASP232     -0.2456
     96  OD2       97.4830   29.1610   79.9270 O.co2 232  ASP232     -0.2456
@<TRIPOS>BOND
     1    37    36    1
     2    36    34   ar
     3    36    35   ar
     4    34    32   ar
     5    58    59    1
     6    25    24    1
     7    35    33   ar
     8    23    22    2
     9    22    21    1
    10    61    60    2
    11    62    59    1
    12    62    63    1
    13    24    21    1
    14    32    31   ar
    15    59    60    1
    16    33    31   ar
    17    60    66   am
    18    21    20    1
    19    65    63   ar
    20    31    30    1
    21    63    64   ar
    22    20    11   am
    23    66    67    1
    24    30    27    1
    25    67    70    1
    26    67    68    1
    27     1     2    1
    28    11    12    2
    29    11    10    1
    30    26    27    1
    31    27    28    1
    32    70    71    1
    33     9    10    1
    34     9     3   am
    35    10    13    1
    36     8     6   ar
    37    68    72   am
    38    68    69    2
    39    77    76    1
    40     2     3    1
    41     2     5    1
    42     3     4    2
    43    72    73    1
    44     5     6    1
    45     6     7   ar
    46    28    38   am
    47    28    29    2
    48    76    73    1
    49    57    55    1
    50    13    14    1
    51    38    39    1
    52    56    55    1
    53    73    74    1
    54    16    14   ar
    55    16    18   ar
    56    14    15   ar
    57    55    54    1
    58    54    51    1
    59    18    19   ar
    60    74    75    2
    61    15    17   ar
    62    39    42    1
    63    39    40    1
    64    52    53    2
    65    52    51    1
    66    42    43    1
    67    19    17   ar
    68    45    43   ar
    69    45    47   ar
    70    51    50    1
    71    40    41    2
    72    43    44   ar
    73    47    48   ar
    74    87    88   ar
    75    87    85   ar
    76    88    86   ar
    77    44    46   ar
    78    85    83   ar
    79    48    46   ar
    80    48    49    1
    81    86    84   ar
    82    78    79    1
    83    83    84   ar
    84    83    82    1
    85    79    82    1
    86    79    80    1
    87    89    80   am
    88    89    90    1
    89    80    81    2
    90    90    91    1
    91    90    93    1
    92    91    92    2
    93    95    94   ar
    94    94    93    1
    95    94    96   ar
