@<TRIPOS>MOLECULE
tmp/2vdvB00.pdb
 173 171 0 0 0
SMALL
GASTEIGER

@<TRIPOS>ATOM
      1  N         24.9930  -26.2590   -8.1410 N.3    38  ASP38      -0.1225
      2  CA        26.1060  -25.4170   -8.5400 C.3    38  ASP38       0.1805
      3  C         27.3200  -25.8440   -7.7000 C.2    38  ASP38       0.2598
      4  O         27.4080  -25.5450   -6.5130 O.2    38  ASP38      -0.2718
      5  CB        25.7430  -23.9510   -8.3090 C.3    38  ASP38       0.1424
      6  CG        26.7970  -22.9840   -8.8320 C.2    38  ASP38       0.3668
      7  OD1       27.7720  -23.4170   -9.4820 O.co2  38  ASP38      -0.2456
      8  OD2       26.6460  -21.7700   -8.5960 O.co2  38  ASP38      -0.2456
      9  N         28.2330  -26.5740   -8.3240 N.am   39  ILE39      -0.1966
     10  CA        29.3440  -27.1870   -7.6210 C.3    39  ILE39       0.1727
     11  C         30.5120  -26.2200   -7.5500 C.2    39  ILE39       0.2617
     12  O         31.0530  -25.8280   -8.5840 O.2    39  ILE39      -0.2715
     13  CB        29.8030  -28.4870   -8.3230 C.3    39  ILE39       0.0290
     14  CG1       28.6600  -29.4960   -8.3640 C.3    39  ILE39       0.0022
     15  CG2       31.0430  -29.0850   -7.6120 C.3    39  ILE39       0.0023
     16  CD1       28.1640  -29.9070   -6.9910 C.3    39  ILE39       0.0001
     17  N         30.9100  -25.8630   -6.3270 N.am   40  GLY40      -0.1940
     18  CA        31.9200  -24.8420   -6.1080 C.3    40  GLY40       0.2014
     19  C         31.3800  -23.4730   -6.4720 C.2    40  GLY40       0.2639
     20  O         31.9710  -22.7680   -7.2770 O.2    40  GLY40      -0.2714
     21  N         30.2530  -23.1000   -5.8720 N.am   41  CYS41      -0.1953
     22  CA        29.4820  -21.9250   -6.2980 C.3    41  CYS41       0.1843
     23  C         30.1150  -20.5640   -5.9680 C.2    41  CYS41       0.2626
     24  O         29.6630  -19.5300   -6.4650 O.2    41  CYS41      -0.2714
     25  CB        28.0730  -21.9770   -5.7010 C.3    41  CYS41       0.0997
     26  SG        28.0340  -21.9790   -3.8720 S.3    41  CYS41      -0.0797
     27  N         31.1480  -20.5510   -5.1260 N.am   42  GLY42      -0.1940
     28  CA        31.7360  -19.2860   -4.7230 C.3    42  GLY42       0.2014
     29  C         30.6810  -18.3900   -4.0910 C.2    42  GLY42       0.2638
     30  O         29.9420  -18.8330   -3.2090 O.2    42  GLY42      -0.2714
     31  N         30.5810  -17.1460   -4.5540 N.am   43  PHE43      -0.1973
     32  CA        29.6840  -16.1720   -3.9140 C.3    43  PHE43       0.1639
     33  C         28.2060  -16.2360   -4.3230 C.2    43  PHE43       0.2290
     34  O         27.3940  -15.4280   -3.8570 O.2    43  PHE43      -0.2864
     35  CB        30.2290  -14.7480   -4.0560 C.3    43  PHE43       0.0560
     36  CG        31.4630  -14.4980   -3.2270 C.ar   43  PHE43      -0.0200
     37  CD1       32.7120  -14.4300   -3.8180 C.ar   43  PHE43      -0.0042
     38  CD2       31.3670  -14.3640   -1.8480 C.ar   43  PHE43      -0.0042
     39  CE1       33.8460  -14.2090   -3.0530 C.ar   43  PHE43      -0.0003
     40  CE2       32.4970  -14.1460   -1.0720 C.ar   43  PHE43      -0.0003
     41  CZ        33.7390  -14.0700   -1.6750 C.ar   43  PHE43      -0.0000
     42  N         27.0530  -25.5510   -3.6930 N.3    62  MET62      -0.1230
     43  CA        27.9120  -26.2330   -2.7320 C.3    62  MET62       0.1702
     44  C         29.2710  -25.5770   -2.7960 C.2    62  MET62       0.2592
     45  O         29.8210  -25.4070   -3.8830 O.2    62  MET62      -0.2718
     46  CB        28.0740  -27.7260   -3.0610 C.3    62  MET62       0.0401
     47  CG        26.8370  -28.5940   -2.8760 C.3    62  MET62       0.0596
     48  SD        27.2700  -30.3580   -3.0350 S.3    62  MET62      -0.1393
     49  CE        28.7840  -30.4020   -2.0570 C.3    62  MET62       0.0692
     50  N         29.8100  -25.2430   -1.6230 N.am   63  GLU63      -0.1966
     51  CA        31.0040  -24.4160   -1.4910 C.3    63  GLU63       0.1733
     52  C         31.8300  -25.0040   -0.3520 C.2    63  GLU63       0.2616
     53  O         31.3060  -25.2310    0.7400 O.2    63  GLU63      -0.2715
     54  CB        30.5870  -22.9940   -1.1010 C.3    63  GLU63       0.0429
     55  CG        31.3670  -21.8270   -1.7070 C.3    63  GLU63       0.1163
     56  CD        32.7620  -22.1640   -2.1650 C.2    63  GLU63       0.3649
     57  OE1       33.0080  -22.1120   -3.3930 O.co2  63  GLU63      -0.2457
     58  OE2       33.6170  -22.4490   -1.3110 O.co2  63  GLU63      -0.2457
     59  N         33.1190  -25.2280   -0.5910 N.am   64  ILE64      -0.1963
     60  CA        33.9690  -25.8540    0.4150 C.3    64  ILE64       0.1727
     61  C         34.4850  -24.8930    1.4930 C.2    64  ILE64       0.2616
     62  O         34.8260  -25.3230    2.5970 O.2    64  ILE64      -0.2715
     63  CB        35.1590  -26.6190   -0.2180 C.3    64  ILE64       0.0290
     64  CG1       35.7590  -27.5880    0.7990 C.3    64  ILE64       0.0022
     65  CG2       36.2180  -25.6520   -0.7250 C.3    64  ILE64       0.0023
     66  CD1       36.7940  -28.5490    0.2160 C.3    64  ILE64       0.0001
     67  N         34.5510  -23.6020    1.1780 N.am   65  ARG65      -0.1977
     68  CA        35.0400  -22.6080    2.1400 C.3    65  ARG65       0.1597
     69  C         33.9090  -22.0860    3.0150 C.2    65  ARG65       0.2287
     70  O         32.9420  -21.4940    2.5020 O.2    65  ARG65      -0.2864
     71  CB        35.6890  -21.4330    1.4060 C.3    65  ARG65       0.0334
     72  CG        36.8030  -21.8420    0.4790 C.3    65  ARG65       0.0492
     73  CD        37.3960  -20.6580   -0.2470 C.3    65  ARG65       0.2205
     74  NE        38.5870  -21.0720   -0.9850 N.pl3  65  ARG65      -0.0865
     75  CZ        39.5590  -20.2530   -1.3820 C.cat  65  ARG65       0.5346
     76  NH1       39.5060  -18.9540   -1.1070 N.pl3  65  ARG65       0.1354
     77  NH2       40.5950  -20.7390   -2.0460 N.pl3  65  ARG65       0.1354
     78  N         33.0280  -18.2090    2.7750 N.3    68  VAL68      -0.1245
     79  CA        32.2320  -17.8920    1.6110 C.3    68  VAL68       0.1561
     80  C         30.7770  -18.3510    1.7690 C.2    68  VAL68       0.2260
     81  O         29.8660  -17.5960    1.4370 O.2    68  VAL68      -0.2867
     82  CB        32.8700  -18.4580    0.3330 C.3    68  VAL68       0.0252
     83  CG1       32.0660  -18.0460   -0.9090 C.3    68  VAL68       0.0019
     84  CG2       34.3170  -17.9850    0.2300 C.3    68  VAL68       0.0019
     85  N         30.1860  -27.8490    1.6810 N.3    96  GLY96      -0.1210
     86  CA        30.5260  -29.2220    1.3980 C.3    96  GLY96       0.1956
     87  C         31.5730  -29.3760    0.3200 C.2    96  GLY96       0.2612
     88  O         31.7780  -28.4800   -0.5030 O.2    96  GLY96      -0.2717
     89  N         32.2380  -30.5290    0.3410 N.am   97  ASN97      -0.1960
     90  CA        33.2540  -30.8770   -0.6390 C.3    97  ASN97       0.1819
     91  C         32.6300  -31.8290   -1.6510 C.2    97  ASN97       0.2621
     92  O         32.2850  -32.9630   -1.3180 O.2    97  ASN97      -0.2715
     93  CB        34.4580  -31.5160    0.0660 C.3    97  ASN97       0.1195
     94  CG        35.6090  -31.8360   -0.8820 C.2    97  ASN97       0.2630
     95  OD1       35.4570  -31.8250   -2.1060 O.2    97  ASN97      -0.2716
     96  ND2       36.7710  -32.1300   -0.3110 N.am   97  ASN97      -0.0877
     97  N         32.4620  -31.3570   -2.8830 N.am   98  ALA98      -0.1963
     98  CA        31.7620  -32.1280   -3.9020 C.3    98  ALA98       0.1728
     99  C         32.5230  -33.3960   -4.2930 C.2    98  ALA98       0.2616
    100  O         31.9620  -34.3060   -4.9100 O.2    98  ALA98      -0.2715
    101  CB        31.5040  -31.2730   -5.1260 C.3    98  ALA98       0.0334
    102  N         33.7990  -33.4570   -3.9350 N.am   99  MET99      -0.1977
    103  CA        34.6080  -34.6200   -4.2650 C.3    99  MET99       0.1605
    104  C         34.5310  -35.6990   -3.1850 C.2    99  MET99       0.2287
    105  O         35.0830  -36.7850   -3.3380 O.2    99  MET99      -0.2864
    106  CB        36.0490  -34.1990   -4.5740 C.3    99  MET99       0.0413
    107  CG        36.1670  -33.5670   -5.9680 C.3    99  MET99       0.0598
    108  SD        37.7830  -32.9060   -6.3600 S.3    99  MET99      -0.1393
    109  CE        38.8430  -34.0590   -5.4840 C.3    99  MET99       0.0692
    110  N         31.2250  -23.9830  -12.7560 N.3   117  CYS117     -0.1221
    111  CA        31.5210  -22.6760  -13.3160 C.3   117  CYS117      0.1808
    112  C         32.8300  -22.1230  -12.7910 C.2   117  CYS117      0.2601
    113  O         32.9120  -21.7340  -11.6290 O.2   117  CYS117     -0.2717
    114  CB        30.4020  -21.7130  -12.9560 C.3   117  CYS117      0.0970
    115  SG        28.8340  -22.1200  -13.6840 S.3   117  CYS117     -0.0800
    116  N         33.8330  -22.0720  -13.6630 N.am  118  PHE118     -0.1962
    117  CA        35.1720  -21.6150  -13.3030 C.3   118  PHE118      0.1756
    118  C         35.7250  -22.3570  -12.0910 C.2   118  PHE118      0.2461
    119  O         35.9530  -21.7630  -11.0450 O.2   118  PHE118     -0.2730
    120  CB        35.1820  -20.0960  -13.0900 C.3   118  PHE118      0.0574
    121  CG        34.7460  -19.3260  -14.3010 C.ar  118  PHE118     -0.0200
    122  CD1       33.4280  -18.9130  -14.4380 C.ar  118  PHE118     -0.0042
    123  CD2       35.6380  -19.0580  -15.3240 C.ar  118  PHE118     -0.0042
    124  CE1       33.0080  -18.2250  -15.5720 C.ar  118  PHE118     -0.0003
    125  CE2       35.2310  -18.3690  -16.4570 C.ar  118  PHE118     -0.0003
    126  CZ        33.9080  -17.9540  -16.5830 C.ar  118  PHE118     -0.0000
    127  N         35.9280  -23.6750  -12.2310 N.am  119  PRO119     -0.2716
    128  CA        36.5340  -24.4800  -11.1640 C.3   119  PRO119      0.1536
    129  C         38.0120  -24.1500  -11.0400 C.2   119  PRO119      0.2599
    130  O         38.6280  -23.7640  -12.0320 O.2   119  PRO119     -0.2715
    131  CB        36.3650  -25.9140  -11.6820 C.3   119  PRO119      0.0310
    132  CG        36.3210  -25.7530  -13.1610 C.3   119  PRO119      0.0237
    133  CD        35.5050  -24.5130  -13.3640 C.3   119  PRO119      0.0939
    134  N         38.5820  -24.3060   -9.8500 N.am  120  ASP120     -0.1959
    135  CA        40.0050  -24.0320   -9.6760 C.3   120  ASP120      0.1825
    136  C         40.9000  -25.0680  -10.3490 C.2   120  ASP120      0.2464
    137  O         40.7630  -26.2630  -10.1130 O.2   120  ASP120     -0.2730
    138  CB        40.3690  -23.8630   -8.2000 C.3   120  ASP120      0.1450
    139  CG        40.9080  -22.4750   -7.8960 C.2   120  ASP120      0.3671
    140  OD1       42.0910  -22.2130   -8.2160 O.co2 120  ASP120     -0.2456
    141  OD2       40.1520  -21.6460   -7.3390 O.co2 120  ASP120     -0.2456
    142  N         41.8280  -24.5950  -11.1930 N.am  121  PRO121     -0.2727
    143  CA        42.7270  -25.4440  -11.9740 C.3   121  PRO121      0.1402
    144  C         44.0560  -25.6530  -11.2640 C.2   121  PRO121      0.2269
    145  O         44.9700  -24.8830  -11.5250 O.2   121  PRO121     -0.2865
    146  CB        42.9870  -24.6000  -13.2320 C.3   121  PRO121      0.0296
    147  CG        42.3970  -23.2040  -12.9380 C.3   121  PRO121      0.0237
    148  CD        42.0480  -23.1710  -11.4890 C.3   121  PRO121      0.0939
    149  N         28.7060  -15.0320  -12.7610 N.3   189  THR189     -0.1203
    150  CA        29.5460  -15.1290  -11.5780 C.3   189  THR189      0.1994
    151  C         30.6650  -14.0980  -11.5680 C.2   189  THR189      0.2618
    152  O         31.1470  -13.6690  -12.6220 O.2   189  THR189     -0.2717
    153  CB        30.1740  -16.5340  -11.4360 C.3   189  THR189      0.1784
    154  OG1       31.2130  -16.7010  -12.4090 O.3   189  THR189     -0.2211
    155  CG2       29.1120  -17.6260  -11.6100 C.3   189  THR189      0.0376
    156  N         31.0760  -13.7190  -10.3620 N.am  190  GLU190     -0.1965
    157  CA        32.1660  -12.7750  -10.1800 C.3   190  GLU190      0.1733
    158  C         33.3800  -13.1540  -11.0140 C.2   190  GLU190      0.2616
    159  O         33.9720  -12.3070  -11.6770 O.2   190  GLU190     -0.2715
    160  CB        32.5330  -12.6730   -8.6980 C.3   190  GLU190      0.0429
    161  CG        31.3030  -12.5810   -7.8070 C.3   190  GLU190      0.1163
    162  CD        31.4710  -11.6120   -6.6640 C.2   190  GLU190      0.3649
    163  OE1       32.6270  -11.3320   -6.2870 O.co2 190  GLU190     -0.2457
    164  OE2       30.4430  -11.1220   -6.1460 O.co2 190  GLU190     -0.2457
    165  N         33.7380  -14.4290  -10.9950 N.am  191  GLU191     -0.1977
    166  CA        34.8900  -14.8980  -11.7520 C.3   191  GLU191      0.1602
    167  C         34.6860  -14.7640  -13.2490 C.2   191  GLU191      0.2287
    168  O         35.6390  -14.5340  -13.9870 O.2   191  GLU191     -0.2864
    169  CB        35.2360  -16.3340  -11.3700 C.3   191  GLU191      0.0415
    170  CG        35.5700  -16.4670   -9.8880 C.3   191  GLU191      0.1163
    171  CD        36.7370  -17.3870   -9.6370 C.2   191  GLU191      0.3649
    172  OE1       37.1460  -18.0870  -10.5910 O.co2 191  GLU191     -0.2457
    173  OE2       37.2460  -17.4060   -8.4900 O.co2 191  GLU191     -0.2457
@<TRIPOS>BOND
     1   126   125   ar
     2   126   124   ar
     3   125   123   ar
     4   124   122   ar
     5   123   121   ar
     6   122   121   ar
     7   121   120    1
     8   168   167    2
     9   115   114    1
    10   116   117    1
    11   116   112   am
    12   133   132    1
    13   133   127    1
    14   111   114    1
    15   111   112    1
    16   111   110    1
    17   117   120    1
    18   117   118    1
    19   167   166    1
    20   146   147    1
    21   146   143    1
    22   132   131    1
    23   147   148    1
    24   112   113    2
    25   149   150    1
    26   152   151    2
    27   154   153    1
    28   127   118   am
    29   127   128    1
    30   118   119    2
    31   130   129    2
    32   143   144    1
    33   143   142    1
    34   166   169    1
    35   166   165    1
    36   131   128    1
    37   159   158    2
    38   155   153    1
    39   150   151    1
    40   150   153    1
    41   151   156   am
    42   145   144    2
    43   148   142    1
    44   169   170    1
    45   142   136   am
    46   128   129    1
    47   129   134   am
    48   158   165   am
    49   158   157    1
    50   172   171   ar
    51   156   157    1
    52   136   137    2
    53   136   135    1
    54   157   160    1
    55   170   171    1
    56   134   135    1
    57   135   138    1
    58   171   173   ar
    59     7     6   ar
    60     6     8   ar
    61     6     5    1
    62   160   161    1
    63    12    11    2
    64     2     5    1
    65     2     1    1
    66     2     3    1
    67    14    13    1
    68    14    16    1
    69     9     3   am
    70     9    10    1
    71    13    10    1
    72    13    15    1
    73   140   139   ar
    74   138   139    1
    75   139   141   ar
    76   161   162    1
    77     3     4    2
    78    10    11    1
    79    11    17   am
    80    20    19    2
    81   162   163   ar
    82   162   164   ar
    83    19    18    1
    84    19    21   am
    85    24    23    2
    86   108   107    1
    87   108   109    1
    88    17    18    1
    89    22    23    1
    90    22    21    1
    91    22    25    1
    92   107   106    1
    93    23    27   am
    94    25    26    1
    95   101    98    1
    96    27    28    1
    97   100    99    2
    98    28    29    1
    99   106   103    1
   100    31    29   am
   101    31    32    1
   102    33    32    1
   103    33    34    2
   104    99   102   am
   105    99    98    1
   106   103   102    1
   107   103   104    1
   108    29    30    2
   109    35    32    1
   110    35    36    1
   111    98    97    1
   112    45    44    2
   113    37    36   ar
   114    37    39   ar
   115    42    43    1
   116    57    56   ar
   117   105   104    2
   118    36    38   ar
   119    46    47    1
   120    46    43    1
   121    39    41   ar
   122    48    47    1
   123    48    49    1
   124    97    91   am
   125    44    43    1
   126    44    50   am
   127    56    55    1
   128    56    58   ar
   129    95    94    2
   130    77    75    1
   131    38    40   ar
   132    55    54    1
   133    41    40   ar
   134    91    92    2
   135    91    90    1
   136    50    51    1
   137    51    54    1
   138    51    52    1
   139    75    76    1
   140    75    74    2
   141    74    73    1
   142    83    82    1
   143    94    96   am
   144    94    93    1
   145    65    63    1
   146    90    93    1
   147    90    89    1
   148    59    52   am
   149    59    60    1
   150    88    87    2
   151    52    53    2
   152    73    72    1
   153    63    60    1
   154    63    64    1
   155    66    64    1
   156    84    82    1
   157    87    89   am
   158    87    86    1
   159    82    79    1
   160    60    61    1
   161    72    71    1
   162    67    61   am
   163    67    68    1
   164    86    85    1
   165    71    68    1
   166    81    80    2
   167    61    62    2
   168    79    80    1
   169    79    78    1
   170    68    69    1
   171    70    69    2
