@<TRIPOS>MOLECULE
tmp/2vdyB00.pdb
 121 116 0 0 0
SMALL
GASTEIGER

@<TRIPOS>ATOM
      1  N        -21.1580    1.8270    8.4620 N.3     3  ALA3       -0.1231
      2  CA       -20.8950    1.8040    9.8990 C.3     3  ALA3        0.1694
      3  C        -20.4690    0.4170   10.3770 C.2     3  ALA3        0.2592
      4  O        -19.5670    0.2940   11.2070 O.2     3  ALA3       -0.2718
      5  CB       -22.1150    2.2880   10.6730 C.3     3  ALA3        0.0304
      6  N        -21.1110   -0.6160    9.8310 N.am    4  SER4       -0.1952
      7  CA       -20.8540   -2.0100   10.2040 C.3     4  SER4        0.1924
      8  C        -19.4200   -2.4700    9.9230 C.2     4  SER4        0.2314
      9  O        -18.8550   -3.2560   10.6850 O.2     4  SER4       -0.2863
     10  CB       -21.8520   -2.9370    9.4990 C.3     4  SER4        0.2116
     11  OG       -21.5880   -4.2990    9.7920 O.3     4  SER4       -0.2180
     12  N        -16.4680   -0.6110   12.3290 N.3     7  VAL7       -0.1245
     13  CA       -16.4840   -1.0420   13.7290 C.3     7  VAL7        0.1561
     14  C        -15.7500   -2.3780   13.8800 C.2     7  VAL7        0.2260
     15  O        -14.9930   -2.5760   14.8380 O.2     7  VAL7       -0.2867
     16  CB       -17.9320   -1.1400   14.2860 C.3     7  VAL7        0.0252
     17  CG1      -17.9270   -1.5410   15.7510 C.3     7  VAL7        0.0019
     18  CG2      -18.6550    0.1850   14.1280 C.3     7  VAL7        0.0019
     19  N        -22.3090    4.3860   30.3300 N.3   211  GLN211     -0.1245
     20  CA       -22.2840    5.1690   29.0980 C.3   211  GLN211      0.1566
     21  C        -22.6330    6.6210   29.3950 C.2   211  GLN211      0.2260
     22  O        -23.6410    6.9010   30.0430 O.2   211  GLN211     -0.2867
     23  CB       -23.2470    4.5900   28.0570 C.3   211  GLN211      0.0367
     24  CG       -23.1510    5.2650   26.6890 C.3   211  GLN211      0.0905
     25  CD       -24.2830    4.8890   25.7460 C.2   211  GLN211      0.2608
     26  OE1      -25.2990    4.3260   26.1570 O.2   211  GLN211     -0.2717
     27  NE2      -24.1110    5.2080   24.4670 N.am  211  GLN211     -0.0878
     28  N        -20.6120   10.0210   22.1890 N.3   219  THR219     -0.1218
     29  CA       -20.9240    9.1880   23.3500 C.3   219  THR219      0.1862
     30  C        -19.7080    8.3490   23.7450 C.2   219  THR219      0.2287
     31  O        -18.8380    8.0750   22.9160 O.2   219  THR219     -0.2866
     32  CB       -22.1710    8.2880   23.1220 C.3   219  THR219      0.1770
     33  OG1      -22.5350    7.6470   24.3520 O.3   219  THR219     -0.2211
     34  CG2      -21.9150    7.2280   22.0510 C.3   219  THR219      0.0375
     35  N        -18.2640    4.9030   26.2140 N.3   221  PHE221     -0.1241
     36  CA       -18.4260    3.7370   27.0750 C.3   221  PHE221      0.1605
     37  C        -17.1790    3.5540   27.9280 C.2   221  PHE221      0.2264
     38  O        -16.0690    3.4460   27.4010 O.2   221  PHE221     -0.2867
     39  CB       -18.6560    2.4670   26.2510 C.3   221  PHE221      0.0534
     40  CG       -19.9630    2.4360   25.5120 C.ar  221  PHE221     -0.0203
     41  CD1      -20.0630    2.9520   24.2220 C.ar  221  PHE221     -0.0042
     42  CD2      -21.0900    1.8640   26.0930 C.ar  221  PHE221     -0.0042
     43  CE1      -21.2720    2.9150   23.5270 C.ar  221  PHE221     -0.0003
     44  CE2      -22.3030    1.8210   25.4070 C.ar  221  PHE221     -0.0003
     45  CZ       -22.3930    2.3470   24.1200 C.ar  221  PHE221     -0.0000
     46  N        -19.7250   -5.8150   17.4430 N.3   239  ARG239     -0.1245
     47  CA       -20.9850   -5.0990   17.2280 C.3   239  ARG239      0.1563
     48  C        -22.1050   -5.7440   18.0360 C.2   239  ARG239      0.2260
     49  O        -23.0150   -5.0630   18.5190 O.2   239  ARG239     -0.2867
     50  CB       -21.3630   -5.0970   15.7450 C.3   239  ARG239      0.0307
     51  CG       -20.4980   -4.2040   14.8700 C.3   239  ARG239      0.0489
     52  CD       -21.0570   -4.0850   13.4520 C.3   239  ARG239      0.2205
     53  NE       -20.9010   -5.3130   12.6700 N.pl3 239  ARG239     -0.0865
     54  CZ       -21.8930   -6.1460   12.3570 C.cat 239  ARG239      0.5346
     55  NH1      -21.6390   -7.2330   11.6410 N.pl3 239  ARG239      0.1354
     56  NH2      -23.1360   -5.8980   12.7510 N.pl3 239  ARG239      0.1354
     57  N        -21.7060   -4.6700   21.7640 N.3   242  ILE242     -0.1231
     58  CA       -22.1230   -3.2670   21.8940 C.3   242  ILE242      0.1692
     59  C        -23.6480   -3.1500   21.9700 C.2   242  ILE242      0.2592
     60  O        -24.1780   -2.5010   22.8750 O.2   242  ILE242     -0.2718
     61  CB       -21.5760   -2.3720   20.7350 C.3   242  ILE242      0.0266
     62  CG1      -20.0480   -2.4790   20.6060 C.3   242  ILE242      0.0019
     63  CG2      -22.0230   -0.9150   20.8990 C.3   242  ILE242      0.0020
     64  CD1      -19.2580   -2.1060   21.8460 C.3   242  ILE242      0.0001
     65  N        -24.3400   -3.7870   21.0240 N.am  243  ASN243     -0.1974
     66  CA       -25.8060   -3.8300   21.0140 C.3   243  ASN243      0.1688
     67  C        -26.3930   -4.4780   22.2650 C.2   243  ASN243      0.2292
     68  O        -27.4150   -4.0210   22.7830 O.2   243  ASN243     -0.2864
     69  CB       -26.3240   -4.5470   19.7630 C.3   243  ASN243      0.1181
     70  CG       -26.4220   -3.6280   18.5560 C.2   243  ASN243      0.2629
     71  OD1      -26.9390   -2.5110   18.6460 O.2   243  ASN243     -0.2716
     72  ND2      -25.9360   -4.1020   17.4140 N.am  243  ASN243     -0.0877
     73  N        -25.9660   -1.9010   25.0420 N.3   246  SER246     -0.1217
     74  CA       -26.9410   -0.8270   24.8130 C.3   246  SER246      0.1889
     75  C        -28.3430   -1.1930   25.3070 C.2   246  SER246      0.2288
     76  O        -28.9970   -0.3930   25.9800 O.2   246  SER246     -0.2866
     77  CB       -27.0000   -0.4630   23.3270 C.3   246  SER246      0.2089
     78  OG       -25.7020   -0.3390   22.7760 O.3   246  SER246     -0.2183
     79  N        -17.7560    6.9140   20.5910 N.3   344  PHE344     -0.1227
     80  CA       -18.5300    6.7360   19.3620 C.3   344  PHE344      0.1736
     81  C        -19.2490    8.0160   18.9370 C.2   344  PHE344      0.2595
     82  O        -19.5000    8.9010   19.7570 O.2   344  PHE344     -0.2718
     83  CB       -19.5650    5.6160   19.5340 C.3   344  PHE344      0.0547
     84  CG       -18.9830    4.2290   19.5110 C.ar  344  PHE344     -0.0202
     85  CD1      -18.7230    3.5490   20.6990 C.ar  344  PHE344     -0.0042
     86  CD2      -18.7140    3.5910   18.3010 C.ar  344  PHE344     -0.0042
     87  CE1      -18.1940    2.2590   20.6830 C.ar  344  PHE344     -0.0003
     88  CE2      -18.1820    2.3030   18.2760 C.ar  344  PHE344     -0.0003
     89  CZ       -17.9220    1.6370   19.4690 C.ar  344  PHE344     -0.0000
     90  N        -19.5780    8.0970   17.6490 N.am  345  ASP345     -0.1960
     91  CA       -20.4250    9.1590   17.1140 C.3   345  ASP345      0.1840
     92  C        -21.8460    8.6220   16.9550 C.2   345  ASP345      0.2622
     93  O        -22.0510    7.5770   16.3370 O.2   345  ASP345     -0.2715
     94  CB       -19.8820    9.6430   15.7610 C.3   345  ASP345      0.1450
     95  CG       -20.5490   10.9280   15.2700 C.2   345  ASP345      0.3671
     96  OD1      -21.7390   11.1680   15.5780 O.co2 345  ASP345     -0.2456
     97  OD2      -19.8740   11.7020   14.5560 O.co2 345  ASP345     -0.2456
     98  N        -22.8190    9.3380   17.5170 N.am  346  HIS346     -0.1973
     99  CA       -24.2370    8.9640   17.4110 C.3   346  HIS346      0.1656
    100  C        -24.8110    9.1240   16.0010 C.2   346  HIS346      0.2291
    101  O        -25.7690    8.4380   15.6340 O.2   346  HIS346     -0.2864
    102  CB       -25.0880    9.7810   18.3870 C.3   346  HIS346      0.0771
    103  CG       -25.4440    9.0530   19.6460 C.ar  346  HIS346      0.0820
    104  ND1      -24.9360    9.4040   20.8790 N.ar  346  HIS346     -0.2267
    105  CD2      -26.2720    8.0040   19.8650 C.ar  346  HIS346      0.1154
    106  CE1      -25.4320    8.5990   21.8020 C.ar  346  HIS346      0.1986
    107  NE2      -26.2450    7.7400   21.2130 N.ar  346  HIS346     -0.2212
    108  N        -22.3610    6.3320   13.7930 N.3   349  TRP349     -0.1241
    109  CA       -21.9480    5.1100   14.5050 C.3   349  TRP349      0.1605
    110  C        -20.4670    4.7460   14.3300 C.2   349  TRP349      0.2264
    111  O        -20.0840    3.5770   14.4380 O.2   349  TRP349     -0.2867
    112  CB       -22.8560    3.9230   14.1480 C.3   349  TRP349      0.0550
    113  CG       -24.2520    4.0310   14.6960 C.ar  349  TRP349      0.0003
    114  CD1      -24.6770    4.8400   15.7130 C.ar  349  TRP349      0.0946
    115  CD2      -25.3980    3.2770   14.2790 C.ar  349  TRP349      0.0152
    116  NE1      -26.0180    4.6490   15.9420 N.ar  349  TRP349     -0.2442
    117  CE2      -26.4860    3.6940   15.0790 C.ar  349  TRP349      0.0810
    118  CE3      -25.6130    2.2930   13.3030 C.ar  349  TRP349      0.0012
    119  CZ2      -27.7720    3.1620   14.9320 C.ar  349  TRP349      0.0191
    120  CZ3      -26.8920    1.7650   13.1580 C.ar  349  TRP349      0.0001
    121  CH2      -27.9550    2.2020   13.9690 C.ar  349  TRP349      0.0015
@<TRIPOS>BOND
     1     1     2    1
     2    10    11    1
     3    10     7    1
     4     6     7    1
     5     6     3   am
     6     2     3    1
     7     2     5    1
     8     8     7    1
     9     8     9    2
    10     3     4    2
    11    55    54    1
    12    12    13    1
    13    54    53    2
    14    54    56    1
    15    53    52    1
    16   120   118   ar
    17   120   121   ar
    18   118   115   ar
    19    52    51    1
    20    13    14    1
    21    13    16    1
    22   108   109    1
    23    14    15    2
    24   121   119   ar
    25    18    16    1
    26   112   109    1
    27   112   113    1
    28   115   113   ar
    29   115   117   ar
    30    16    17    1
    31   110   111    2
    32   110   109    1
    33    97    95   ar
    34   113   114   ar
    35    51    50    1
    36   119   117   ar
    37   117   116   ar
    38    95    96   ar
    39    95    94    1
    40   101   100    2
    41   114   116   ar
    42    50    47    1
    43    94    91    1
    44   100    99    1
    45    93    92    2
    46    92    91    1
    47    92    98   am
    48    91    90    1
    49    47    46    1
    50    47    48    1
    51    99    98    1
    52    99   102    1
    53    72    70   am
    54    90    81   am
    55    48    49    2
    56    88    86   ar
    57    88    89   ar
    58    86    84   ar
    59   102   103    1
    60    70    71    2
    61    70    69    1
    62    81    80    1
    63    81    82    2
    64    80    83    1
    65    80    79    1
    66    89    87   ar
    67    84    83    1
    68    84    85   ar
    69   103   105   ar
    70   103   104   ar
    71    69    66    1
    72   105   107   ar
    73    62    61    1
    74    62    64    1
    75    87    85   ar
    76    61    63    1
    77    61    58    1
    78   104   106   ar
    79    66    65    1
    80    66    67    1
    81    65    59   am
    82   107   106   ar
    83    57    58    1
    84    58    59    1
    85    59    60    2
    86    34    32    1
    87    28    29    1
    88    67    68    2
    89    78    77    1
    90    31    30    2
    91    32    29    1
    92    32    33    1
    93    77    74    1
    94    29    30    1
    95    43    45   ar
    96    43    41   ar
    97    45    44   ar
    98    41    40   ar
    99    27    25   am
   100    74    73    1
   101    74    75    1
   102    75    76    2
   103    44    42   ar
   104    40    42   ar
   105    40    39    1
   106    25    26    2
   107    25    24    1
   108    35    36    1
   109    39    36    1
   110    24    23    1
   111    36    37    1
   112    38    37    2
   113    23    20    1
   114    20    21    1
   115    20    19    1
   116    21    22    2
