@<TRIPOS>MOLECULE
tmp/2ve3A01.pdb
 181 173 0 0 0
SMALL
GASTEIGER

@<TRIPOS>ATOM
      1  N         55.3560   13.4030   14.1580 N.3    21  PHE21      -0.1241
      2  CA        54.5100   12.3200   13.6500 C.3    21  PHE21       0.1605
      3  C         53.0090   12.6340   13.7510 C.2    21  PHE21       0.2264
      4  O         52.2680   12.4710   12.7780 O.2    21  PHE21      -0.2867
      5  CB        54.8380   11.0340   14.4170 C.3    21  PHE21       0.0534
      6  CG        54.0960    9.8250   13.9330 C.ar   21  PHE21      -0.0203
      7  CD1       54.4510    9.2070   12.7350 C.ar   21  PHE21      -0.0042
      8  CD2       53.0530    9.2970   14.6820 C.ar   21  PHE21      -0.0042
      9  CE1       53.7710    8.0800   12.2820 C.ar   21  PHE21      -0.0003
     10  CE2       52.3670    8.1640   14.2410 C.ar   21  PHE21      -0.0003
     11  CZ        52.7270    7.5540   13.0360 C.ar   21  PHE21      -0.0000
     12  N         61.7690    3.6260    9.6340 N.3    50  PHE50      -0.1241
     13  CA        60.8090    3.7630    8.5400 C.3    50  PHE50       0.1605
     14  C         61.4200    3.2750    7.2130 C.2    50  PHE50       0.2264
     15  O         62.4950    3.7220    6.8050 O.2    50  PHE50      -0.2867
     16  CB        60.3730    5.2210    8.3940 C.3    50  PHE50       0.0534
     17  CG        59.2850    5.6610    9.3660 C.ar   50  PHE50      -0.0203
     18  CD1       58.1260    6.2640    8.8890 C.ar   50  PHE50      -0.0042
     19  CD2       59.4370    5.5140   10.7440 C.ar   50  PHE50      -0.0042
     20  CE1       57.1210    6.6940    9.7650 C.ar   50  PHE50      -0.0003
     21  CE2       58.4420    5.9440   11.6220 C.ar   50  PHE50      -0.0003
     22  CZ        57.2890    6.5360   11.1300 C.ar   50  PHE50      -0.0000
     23  N         51.1360   -1.5950   17.2890 N.3    72  TRP72      -0.1241
     24  CA        50.5250   -0.3040   17.0170 C.3    72  TRP72       0.1605
     25  C         51.0230    0.6480   18.0970 C.2    72  TRP72       0.2264
     26  O         51.4170    0.1930   19.1640 O.2    72  TRP72      -0.2867
     27  CB        48.9940   -0.4140   17.0040 C.3    72  TRP72       0.0550
     28  CG        48.4290   -1.0880   15.7340 C.ar   72  TRP72       0.0003
     29  CD1       47.8730   -2.3350   15.6380 C.ar   72  TRP72       0.0946
     30  CD2       48.4170   -0.5450   14.4030 C.ar   72  TRP72       0.0152
     31  NE1       47.5080   -2.5940   14.3350 N.ar   72  TRP72      -0.2442
     32  CE2       47.8260   -1.5140   13.5590 C.ar   72  TRP72       0.0810
     33  CE3       48.8530    0.6700   13.8420 C.ar   72  TRP72       0.0012
     34  CZ2       47.6530   -1.3100   12.1910 C.ar   72  TRP72       0.0191
     35  CZ3       48.6700    0.8740   12.4770 C.ar   72  TRP72       0.0001
     36  CH2       48.0730   -0.1090   11.6700 C.ar   72  TRP72       0.0015
     37  N         46.8990    3.6220   20.3910 N.3    76  THR76      -0.1218
     38  CA        46.0870    2.7340   19.5450 C.3    76  THR76       0.1862
     39  C         45.8250    1.3930   20.2260 C.2    76  THR76       0.2287
     40  O         44.7030    0.8980   20.2130 O.2    76  THR76      -0.2866
     41  CB        46.7670    2.4490   18.1770 C.3    76  THR76       0.1770
     42  OG1       47.4810    3.6050   17.7370 O.3    76  THR76      -0.2211
     43  CG2       45.7330    2.0330   17.1250 C.3    76  THR76       0.0375
     44  N         42.0710    0.1140   21.2000 N.3    80  LEU80      -0.1245
     45  CA        41.5850   -1.0870   20.5280 C.3    80  LEU80       0.1561
     46  C         41.2080   -2.1910   21.5150 C.2    80  LEU80       0.2260
     47  O         40.2170   -2.8930   21.3110 O.2    80  LEU80      -0.2867
     48  CB        42.6510   -1.6320   19.5720 C.3    80  LEU80       0.0270
     49  CG        42.8450   -1.0090   18.1910 C.3    80  LEU80       0.0019
     50  CD1       44.1020   -1.6140   17.5820 C.3    80  LEU80       0.0001
     51  CD2       41.6400   -1.3140   17.3370 C.3    80  LEU80       0.0001
     52  N         43.6530   -6.8280   15.6880 N.3    86  ALA86      -0.1245
     53  CA        44.7830   -5.9240   15.5520 C.3    86  ALA86       0.1562
     54  C         45.8060   -6.0400   16.7010 C.2    86  ALA86       0.2260
     55  O         46.9530   -5.6860   16.5260 O.2    86  ALA86      -0.2867
     56  CB        44.2840   -4.4980   15.4110 C.3    86  ALA86       0.0290
     57  N         45.3110    7.8370   17.3490 N.3   174  PHE174     -0.1241
     58  CA        46.7000    8.2650   17.1800 C.3   174  PHE174      0.1605
     59  C         46.8880    9.6330   17.8370 C.2   174  PHE174      0.2264
     60  O         46.6060   10.6710   17.2430 O.2   174  PHE174     -0.2867
     61  CB        47.1170    8.2380   15.7060 C.3   174  PHE174      0.0534
     62  CG        47.0960    6.8490   15.0970 C.ar  174  PHE174     -0.0203
     63  CD1       48.2730    6.1150   14.9600 C.ar  174  PHE174     -0.0042
     64  CD2       45.9050    6.2730   14.6710 C.ar  174  PHE174     -0.0042
     65  CE1       48.2580    4.8290   14.3950 C.ar  174  PHE174     -0.0003
     66  CE2       45.8850    4.9800   14.1060 C.ar  174  PHE174     -0.0003
     67  CZ        47.0650    4.2650   13.9810 C.ar  174  PHE174     -0.0000
     68  N         36.3080   -3.0680   16.5400 N.3   242  LEU242     -0.1245
     69  CA        37.3550   -2.9780   15.5130 C.3   242  LEU242      0.1561
     70  C         36.7630   -2.9690   14.1210 C.2   242  LEU242      0.2260
     71  O         37.0850   -2.0910   13.3160 O.2   242  LEU242     -0.2867
     72  CB        38.3930   -4.1020   15.6720 C.3   242  LEU242      0.0270
     73  CG        39.4820   -4.2770   14.5950 C.3   242  LEU242      0.0019
     74  CD1       40.3780   -3.0520   14.4510 C.3   242  LEU242      0.0001
     75  CD2       40.3250   -5.5240   14.8690 C.3   242  LEU242      0.0001
     76  N         35.0530    0.2990   13.5800 N.3   245  PHE245     -0.1227
     77  CA        36.0490    1.3410   13.3170 C.3   245  PHE245      0.1736
     78  C         36.6710    1.2060   11.8980 C.2   245  PHE245      0.2595
     79  O         36.6900    2.1780   11.1200 O.2   245  PHE245     -0.2718
     80  CB        37.1170    1.3960   14.4230 C.3   245  PHE245      0.0547
     81  CG        38.4420    1.9540   13.9640 C.ar  245  PHE245     -0.0202
     82  CD1       38.5400    3.2550   13.4680 C.ar  245  PHE245     -0.0042
     83  CD2       39.5870    1.1740   14.0180 C.ar  245  PHE245     -0.0042
     84  CE1       39.7600    3.7530   13.0150 C.ar  245  PHE245     -0.0003
     85  CE2       40.7990    1.6720   13.5790 C.ar  245  PHE245     -0.0003
     86  CZ        40.8820    2.9620   13.0710 C.ar  245  PHE245     -0.0000
     87  N         37.1590    0.0140   11.5580 N.am  246  ALA246     -0.1980
     88  CA        37.7890   -0.1890   10.2630 C.3   246  ALA246      0.1597
     89  C         36.8100    0.0180    9.0970 C.2   246  ALA246      0.2287
     90  O         37.1680    0.5980    8.0620 O.2   246  ALA246     -0.2864
     91  CB        38.4390   -1.5550   10.1950 C.3   246  ALA246      0.0319
     92  N         36.0880    4.2020    9.3470 N.3   249  GLU249     -0.1231
     93  CA        37.1600    5.1850    9.0890 C.3   249  GLU249      0.1699
     94  C         37.8270    5.0280    7.7020 C.2   249  GLU249      0.2592
     95  O         37.9530    5.9880    6.9470 O.2   249  GLU249     -0.2718
     96  CB        38.2100    5.1490   10.1970 C.3   249  GLU249      0.0402
     97  CG        39.3570    6.1680   10.0330 C.3   249  GLU249      0.1161
     98  CD        38.9380    7.6420   10.2220 C.2   249  GLU249      0.3649
     99  OE1       37.8170    7.9210   10.7240 O.co2 249  GLU249     -0.2457
    100  OE2       39.7560    8.5180    9.8600 O.co2 249  GLU249     -0.2457
    101  N         38.2260    3.8130    7.3570 N.am  250  THR250     -0.1953
    102  CA        38.9650    3.6260    6.1050 C.3   250  THR250      0.1897
    103  C         38.0780    4.0330    4.9230 C.2   250  THR250      0.2313
    104  O         38.5310    4.7100    4.0000 O.2   250  THR250     -0.2863
    105  CB        39.4840    2.1500    5.9550 C.3   250  THR250      0.1794
    106  OG1       38.3760    1.2470    5.8660 O.3   250  THR250     -0.2208
    107  CG2       40.3590    1.7480    7.1660 C.3   250  THR250      0.0378
    108  N         44.1590    5.1320    2.1790 N.3   309  PRO309     -0.2102
    109  CA        43.4010    5.4590    3.4160 C.3   309  PRO309      0.1504
    110  C         44.2040    5.2070    4.6900 C.2   309  PRO309      0.2576
    111  O         44.0460    5.9350    5.6830 O.2   309  PRO309     -0.2718
    112  CB        42.2020    4.4920    3.3580 C.3   309  PRO309      0.0282
    113  CG        42.0660    4.1670    1.9040 C.3   309  PRO309      0.0208
    114  CD        43.4880    4.0740    1.3990 C.3   309  PRO309      0.0893
    115  N         45.0370    4.1700    4.6620 N.am  310  VAL310     -0.1966
    116  CA        45.8500    3.7430    5.8140 C.3   310  VAL310      0.1727
    117  C         47.2990    4.0060    5.4280 C.2   310  VAL310      0.2617
    118  O         47.7630    3.5070    4.3920 O.2   310  VAL310     -0.2715
    119  CB        45.6470    2.2430    6.1400 C.3   310  VAL310      0.0290
    120  CG1       46.5760    1.7890    7.2870 C.3   310  VAL310      0.0023
    121  CG2       44.1860    1.9730    6.5000 C.3   310  VAL310      0.0023
    122  N         47.9880    4.8110    6.2410 N.am  311  GLY311     -0.1940
    123  CA        49.3380    5.2710    5.9230 C.3   311  GLY311      0.2014
    124  C         50.4330    4.2250    6.0410 C.2   311  GLY311      0.2639
    125  O         51.4310    4.2570    5.3090 O.2   311  GLY311     -0.2714
    126  N         50.2540    3.2920    6.9720 N.am  312  GLY312     -0.1954
    127  CA        51.2350    2.2520    7.1800 C.3   312  GLY312      0.1869
    128  C         50.9360    1.4480    8.4250 C.2   312  GLY312      0.2309
    129  O         49.9590    1.7350    9.1300 O.2   312  GLY312     -0.2863
    130  N         53.0550   -1.1870   11.7000 N.3   314  PHE314     -0.1241
    131  CA        54.2250   -1.2650   12.5810 C.3   314  PHE314      0.1605
    132  C         54.5050   -2.6960   13.0270 C.2   314  PHE314      0.2264
    133  O         53.5830   -3.4940   13.2000 O.2   314  PHE314     -0.2867
    134  CB        54.0460   -0.3610   13.7980 C.3   314  PHE314      0.0534
    135  CG        53.7540    1.0610   13.4420 C.ar  314  PHE314     -0.0203
    136  CD1       54.7680    2.0080   13.4320 C.ar  314  PHE314     -0.0042
    137  CD2       52.4570    1.4520   13.0940 C.ar  314  PHE314     -0.0042
    138  CE1       54.4930    3.3360   13.0880 C.ar  314  PHE314     -0.0003
    139  CE2       52.1750    2.7720   12.7480 C.ar  314  PHE314     -0.0003
    140  CZ        53.1850    3.7100   12.7350 C.ar  314  PHE314     -0.0000
    141  N         55.7320    2.1560    5.1260 N.3   337  GLN337     -0.1245
    142  CA        54.9630    3.3360    4.7560 C.3   337  GLN337      0.1566
    143  C         54.3620    3.1630    3.3700 C.2   337  GLN337      0.2260
    144  O         55.0660    3.2460    2.3510 O.2   337  GLN337     -0.2867
    145  CB        55.8290    4.5910    4.8360 C.3   337  GLN337      0.0367
    146  CG        56.2630    4.9380    6.2690 C.3   337  GLN337      0.0905
    147  CD        55.0880    5.4420    7.1040 C.2   337  GLN337      0.2608
    148  OE1       54.4540    6.4410    6.7540 O.2   337  GLN337     -0.2717
    149  NE2       54.7660    4.7260    8.1830 N.am  337  GLN337     -0.0878
    150  N         52.0700    5.1140    1.9960 N.3   339  SER339     -0.1217
    151  CA        52.0930    6.4200    1.3460 C.3   339  SER339      0.1889
    152  C         53.4070    6.6660    0.5860 C.2   339  SER339      0.2288
    153  O         53.3840    7.1810   -0.5210 O.2   339  SER339     -0.2866
    154  CB        51.8350    7.5220    2.3800 C.3   339  SER339      0.2089
    155  OG        52.6610    7.3360    3.5270 O.3   339  SER339     -0.2183
    156  N         44.9140   -6.7590    5.2380 N.3   383  CYS383     -0.1235
    157  CA        43.5220   -6.4090    5.5170 C.3   383  CYS383      0.1677
    158  C         42.5840   -7.5850    5.3030 C.2   383  CYS383      0.2270
    159  O         42.6100   -8.2590    4.2550 O.2   383  CYS383     -0.2867
    160  CB        43.0770   -5.2180    4.6700 C.3   383  CYS383      0.0956
    161  SG        41.2980   -4.8870    4.7100 S.3   383  CYS383     -0.0801
    162  N         45.8410   14.1550    7.7520 N.3   418  VAL418     -0.1245
    163  CA        45.7600   12.7490    8.1440 C.3   418  VAL418      0.1561
    164  C         45.6140   12.5800    9.6730 C.2   418  VAL418      0.2260
    165  O         46.6060   12.3900   10.3790 O.2   418  VAL418     -0.2867
    166  CB        46.9840   11.9340    7.6030 C.3   418  VAL418      0.0252
    167  CG1       46.7700   10.4650    7.7850 C.3   418  VAL418      0.0019
    168  CG2       47.2600   12.2250    6.1080 C.3   418  VAL418      0.0019
    169  N         43.2090   10.1460   11.7150 N.3   420  PRO420     -0.2102
    170  CA        44.4070    9.4830   11.2540 C.3   420  PRO420      0.1504
    171  C         44.3730    8.9790    9.7940 C.2   420  PRO420      0.2576
    172  O         45.2320    8.1740    9.4240 O.2   420  PRO420     -0.2718
    173  CB        44.4710    8.2930   12.2060 C.3   420  PRO420      0.0282
    174  CG        43.0110    7.9250   12.4310 C.3   420  PRO420      0.0208
    175  CD        42.1750    9.1590   12.0670 C.3   420  PRO420      0.0893
    176  N         43.4110    9.4570    8.9940 N.am  421  SER421     -0.1953
    177  CA        43.2490    9.1030    7.5690 C.3   421  SER421      0.1924
    178  C         43.1930   10.3400    6.6820 C.2   421  SER421      0.2314
    179  O         42.6690   11.3630    7.1090 O.2   421  SER421     -0.2863
    180  CB        41.9340    8.3420    7.3680 C.3   421  SER421      0.2116
    181  OG        42.1530    6.9560    7.3640 O.3   421  SER421     -0.2180
@<TRIPOS>BOND
     1   153   152    2
     2   152   151    1
     3   151   150    1
     4   151   154    1
     5   114   113    1
     6   114   108    1
     7   113   112    1
     8   108   109    1
     9   144   143    2
    10   154   155    1
    11   112   109    1
    12   143   142    1
    13   109   110    1
    14   104   103    2
    15   159   158    2
    16   118   117    2
    17   115   110   am
    18   115   116    1
    19   160   161    1
    20   160   157    1
    21   110   111    2
    22   142   145    1
    23   142   141    1
    24   145   146    1
    25   103   102    1
    26   156   157    1
    27   158   157    1
    28   125   124    2
    29   117   116    1
    30   117   122   am
    31   116   119    1
    32   106   105    1
    33   123   124    1
    34   123   122    1
    35   105   102    1
    36   105   107    1
    37   124   126   am
    38   102   101    1
    39   168   166    1
    40   119   121    1
    41   119   120    1
    42   146   147    1
    43   178   179    2
    44   178   177    1
    45   148   147    2
    46    15    14    2
    47    95    94    2
    48   126   127    1
    49   147   149   am
    50   127   128    1
    51    14    13    1
    52   101    94   am
    53   181   180    1
    54   180   177    1
    55   177   176    1
    56   166   167    1
    57   166   163    1
    58    94    93    1
    59   162   163    1
    60    90    89    2
    61   163   164    1
    62    16    13    1
    63    16    17    1
    64   128   129    2
    65    13    12    1
    66    18    17   ar
    67    18    20   ar
    68   176   171   am
    69    93    92    1
    70    93    96    1
    71    89    88    1
    72    17    19   ar
    73   172   171    2
    74   164   165    2
    75    20    22   ar
    76   171   170    1
    77   100    98   ar
    78    97    96    1
    79    97    98    1
    80    91    88    1
    81    98    99   ar
    82    88    87    1
    83    19    21   ar
    84    79    78    2
    85    22    21   ar
    86   170   169    1
    87   170   173    1
    88    87    78   am
    89    36    34   ar
    90    36    35   ar
    91   130   131    1
    92   169   175    1
    93    78    77    1
    94   175   174    1
    95    34    32   ar
    96   173   174    1
    97     9     7   ar
    98     9    11   ar
    99    35    33   ar
   100   131   132    1
   101   131   134    1
   102   140   139   ar
   103   140   138   ar
   104     7     6   ar
   105   139   137   ar
   106     4     3    2
   107    84    86   ar
   108    84    82   ar
   109   132   133    2
   110    11    10   ar
   111    86    85   ar
   112   138   136   ar
   113   137   135   ar
   114    71    70    2
   115    77    76    1
   116    77    80    1
   117   136   135   ar
   118   135   134    1
   119    82    81   ar
   120    32    31   ar
   121    32    30   ar
   122    85    83   ar
   123     2     3    1
   124     2     1    1
   125     2     5    1
   126    33    30   ar
   127     6     5    1
   128     6     8   ar
   129    81    83   ar
   130    81    80    1
   131    67    66   ar
   132    67    65   ar
   133    66    64   ar
   134    70    69    1
   135    10     8   ar
   136    31    29   ar
   137    65    63   ar
   138    30    28   ar
   139    74    73    1
   140    73    75    1
   141    73    72    1
   142    64    62   ar
   143    63    62   ar
   144    62    61    1
   145    56    53    1
   146    69    72    1
   147    69    68    1
   148    53    52    1
   149    53    54    1
   150    29    28   ar
   151    61    58    1
   152    28    27    1
   153    55    54    2
   154    27    24    1
   155    24    23    1
   156    24    25    1
   157    43    41    1
   158    58    57    1
   159    58    59    1
   160    60    59    2
   161    51    49    1
   162    50    49    1
   163    42    41    1
   164    25    26    2
   165    41    38    1
   166    49    48    1
   167    38    39    1
   168    38    37    1
   169    48    45    1
   170    40    39    2
   171    45    44    1
   172    45    46    1
   173    47    46    2
