@<TRIPOS>MOLECULE
tmp/2vedB00.pdb
 110 107 0 0 0
SMALL
GASTEIGER

@<TRIPOS>ATOM
      1  N         45.9620   -5.0530   -2.3930 N.3    23  GLN23      -0.1231
      2  CA        47.2040   -4.9390   -3.1070 C.3    23  GLN23       0.1698
      3  C         48.1260   -6.1530   -3.1620 C.2    23  GLN23       0.2592
      4  O         48.7260   -6.5450   -2.1700 O.2    23  GLN23      -0.2718
      5  CB        47.8340   -3.5390   -3.1630 C.3    23  GLN23       0.0381
      6  CG        47.6290   -2.9250   -4.5800 C.3    23  GLN23       0.0905
      7  CD        48.0980   -1.4730   -4.7680 C.2    23  GLN23       0.2608
      8  OE1       49.1210   -1.0320   -4.2240 O.2    23  GLN23      -0.2717
      9  NE2       47.3400   -0.7250   -5.5710 N.am   23  GLN23      -0.0878
     10  N         48.1740   -6.7460   -4.3580 N.am   24  LYS24      -0.1966
     11  CA        49.0830   -7.8390   -4.6990 C.3    24  LYS24       0.1728
     12  C         50.5330   -7.3430   -4.6080 C.2    24  LYS24       0.2616
     13  O         50.8980   -6.4780   -5.3720 O.2    24  LYS24      -0.2715
     14  CB        48.7430   -8.3590   -6.1130 C.3    24  LYS24       0.0311
     15  CG        49.7160   -9.3910   -6.6770 C.3    24  LYS24       0.0038
     16  CD        49.0810  -10.2790   -7.7380 C.3    24  LYS24       0.0206
     17  CE        50.1000  -11.3510   -8.2240 C.3    24  LYS24       0.1093
     18  NZ        49.5350  -12.3580   -9.1940 N.3    24  LYS24      -0.1314
     19  N         51.3460   -7.8580   -3.6840 N.am   25  PHE25      -0.1974
     20  CA        52.6850   -7.2770   -3.4360 C.3    25  PHE25       0.1639
     21  C         53.5720   -7.0790   -4.6770 C.2    25  PHE25       0.2290
     22  O         54.1460   -8.0500   -5.1940 O.2    25  PHE25      -0.2864
     23  CB        53.5170   -8.0820   -2.4250 C.3    25  PHE25       0.0560
     24  CG        52.8260   -8.3690   -1.1410 C.ar   25  PHE25      -0.0200
     25  CD1       51.8760   -7.5160   -0.6250 C.ar   25  PHE25      -0.0042
     26  CD2       53.1460   -9.5080   -0.4220 C.ar   25  PHE25      -0.0042
     27  CE1       51.2430   -7.8260    0.5710 C.ar   25  PHE25      -0.0003
     28  CE2       52.5170   -9.7980    0.7780 C.ar   25  PHE25      -0.0003
     29  CZ        51.5720   -8.9620    1.2690 C.ar   25  PHE25      -0.0000
     30  N         57.4720  -12.0280    3.2250 N.3    36  SER36      -0.1217
     31  CA        56.1250  -11.4420    3.0820 C.3    36  SER36       0.1889
     32  C         55.6180  -10.8060    4.3820 C.2    36  SER36       0.2288
     33  O         54.4390  -10.5010    4.5460 O.2    36  SER36      -0.2866
     34  CB        55.1260  -12.4300    2.4730 C.3    36  SER36       0.2089
     35  OG        55.4300  -13.7510    2.8600 O.3    36  SER36      -0.2183
     36  N         41.6000  -22.4640   -0.2110 N.3    77  PRO77      -0.2102
     37  CA        43.0870  -22.4570   -0.1700 C.3    77  PRO77       0.1504
     38  C         43.7910  -21.3110   -0.9530 C.2    77  PRO77       0.2576
     39  O         43.2630  -20.8270   -1.9650 O.2    77  PRO77      -0.2718
     40  CB        43.4590  -23.8380   -0.7240 C.3    77  PRO77       0.0282
     41  CG        42.2740  -24.6920   -0.4040 C.3    77  PRO77       0.0208
     42  CD        41.0750  -23.8000   -0.5560 C.3    77  PRO77       0.0893
     43  N         44.9490  -20.8760   -0.4460 N.am   78  GLY78      -0.1943
     44  CA        45.7800  -19.8460   -1.0770 C.3    78  GLY78       0.2014
     45  C         45.0880  -18.5030   -1.2990 C.2    78  GLY78       0.2639
     46  O         45.3100  -17.8400   -2.3190 O.2    78  GLY78      -0.2714
     47  N         44.2240  -18.1030   -0.3730 N.am   79  ALA79      -0.1963
     48  CA        43.5790  -16.8180   -0.4990 C.3    79  ALA79       0.1728
     49  C         44.4160  -15.7450    0.1360 C.2    79  ALA79       0.2617
     50  O         44.1260  -14.5700   -0.0200 O.2    79  ALA79      -0.2715
     51  CB        42.2340  -16.8440    0.1450 C.3    79  ALA79       0.0334
     52  N         45.4430  -16.1330    0.8810 N.am   80  GLY80      -0.1940
     53  CA        46.1560  -15.1590    1.7100 C.3    80  GLY80       0.2014
     54  C         45.9600  -15.2070    3.2190 C.2    80  GLY80       0.2639
     55  O         46.6740  -14.5120    3.9300 O.2    80  GLY80      -0.2714
     56  N         45.0380  -16.0270    3.7280 N.am   81  MET81      -0.1963
     57  CA        44.8480  -16.1280    5.1800 C.3    81  MET81       0.1736
     58  C         46.1680  -15.9870    5.9620 C.2    81  MET81       0.2617
     59  O         46.2980  -15.1630    6.8710 O.2    81  MET81      -0.2715
     60  CB        44.2160  -17.4570    5.5490 C.3    81  MET81       0.0427
     61  CG        42.8460  -17.6500    4.9670 C.3    81  MET81       0.0599
     62  SD        42.1440  -19.2560    5.4520 S.3    81  MET81      -0.1393
     63  CE        42.8980  -20.3700    4.2480 C.3    81  MET81       0.0692
     64  N         47.1580  -16.7950    5.5980 N.am   82  SER82      -0.1936
     65  CA        48.2870  -16.9320    6.4770 C.3    82  SER82       0.2055
     66  C         49.0590  -15.6510    6.4410 C.2    82  SER82       0.2644
     67  O         49.6060  -15.1890    7.4670 O.2    82  SER82      -0.2714
     68  CB        49.1400  -18.1350    6.0940 C.3    82  SER82       0.2130
     69  OG        48.3310  -19.2790    6.1810 O.3    82  SER82      -0.2179
     70  N         49.0820  -15.0730    5.2440 N.am   83  THR83      -0.1936
     71  CA        49.8200  -13.8320    5.0320 C.3    83  THR83       0.2028
     72  C         49.1560  -12.6460    5.7320 C.2    83  THR83       0.2642
     73  O         49.8210  -11.8890    6.4580 O.2    83  THR83      -0.2714
     74  CB        50.0630  -13.5790    3.5770 C.3    83  THR83       0.1808
     75  OG1       50.8420  -14.6740    3.0940 O.3    83  THR83      -0.2208
     76  CG2       50.8720  -12.3010    3.4200 C.3    83  THR83       0.0379
     77  N         47.8500  -12.5110    5.5530 N.am   84  ILE84      -0.1977
     78  CA        47.1410  -11.5190    6.3070 C.3    84  ILE84       0.1596
     79  C         47.4480  -11.6710    7.7890 C.2    84  ILE84       0.2287
     80  O         47.7200  -10.7070    8.4550 O.2    84  ILE84      -0.2864
     81  CB        45.6470  -11.6140    6.0850 C.3    84  ILE84       0.0276
     82  CG1       45.3420  -11.3490    4.6110 C.3    84  ILE84       0.0022
     83  CG2       44.8830  -10.6520    7.0390 C.3    84  ILE84       0.0022
     84  CD1       46.3340  -10.4050    3.9730 C.3    84  ILE84       0.0001
     85  N         51.6170  -22.8860    7.7230 N.3   110  THR110     -0.1218
     86  CA        52.6610  -22.0370    7.1220 C.3   110  THR110      0.1862
     87  C         53.3300  -20.9990    8.0630 C.2   110  THR110      0.2287
     88  O         54.4130  -20.4350    7.7330 O.2   110  THR110     -0.2866
     89  CB        52.2450  -21.4300    5.7050 C.3   110  THR110      0.1770
     90  OG1       51.0460  -20.6710    5.8240 O.3   110  THR110     -0.2211
     91  CG2       52.0030  -22.5160    4.6840 C.3   110  THR110      0.0375
     92  N         42.0950   -9.3540   -0.6010 N.3   237  ASN237     -0.1225
     93  CA        43.5240   -9.5810   -0.7970 C.3   237  ASN237      0.1785
     94  C         43.8110   -9.7560   -2.2610 C.2   237  ASN237      0.2597
     95  O         42.9090  -10.0560   -3.0300 O.2   237  ASN237     -0.2718
     96  CB        44.0380  -10.7860    0.0130 C.3   237  ASN237      0.1169
     97  CG        45.5640  -10.9300   -0.0410 C.2   237  ASN237      0.2627
     98  OD1       46.3010   -9.9470    0.0940 O.2   237  ASN237     -0.2716
     99  ND2       46.0400  -12.1530   -0.2450 N.am  237  ASN237     -0.0877
    100  N         45.0660   -9.5440   -2.6360 N.am  238  ARG238     -0.1979
    101  CA        45.5430   -9.6790   -4.0170 C.3   238  ARG238      0.1597
    102  C         44.8840   -8.7110   -5.0040 C.2   238  ARG238      0.2287
    103  O         44.7840   -9.0150   -6.2070 O.2   238  ARG238     -0.2864
    104  CB        45.4320  -11.1160   -4.5090 C.3   238  ARG238      0.0334
    105  CG        46.4920  -12.0200   -3.9920 C.3   238  ARG238      0.0492
    106  CD        46.4220  -13.3490   -4.6960 C.3   238  ARG238      0.2205
    107  NE        47.4640  -14.2490   -4.2150 N.pl3 238  ARG238     -0.0865
    108  CZ        47.2710  -15.1760   -3.2780 C.cat 238  ARG238      0.5346
    109  NH1       46.0820  -15.3510   -2.7190 N.pl3 238  ARG238      0.1354
    110  NH2       48.2690  -15.9350   -2.9010 N.pl3 238  ARG238      0.1354
@<TRIPOS>BOND
     1    18    17    1
     2    17    16    1
     3    16    15    1
     4    15    14    1
     5   103   102    2
     6    14    11    1
     7     9     7   am
     8    13    12    2
     9    22    21    2
    10   102   101    1
    11     7     6    1
    12     7     8    2
    13    11    12    1
    14    11    10    1
    15   106   107    1
    16   106   105    1
    17    21    20    1
    18    12    19   am
    19     6     5    1
    20   104   101    1
    21   104   105    1
    22    10     3   am
    23   107   108    2
    24   101   100    1
    25    19    20    1
    26    20    23    1
    27   108   110    1
    28   108   109    1
    29     5     2    1
    30     3     2    1
    31     3     4    2
    32     2     1    1
    33    95    94    2
    34   100    94   am
    35    23    24    1
    36    46    45    2
    37    94    93    1
    38    39    38    2
    39    45    44    1
    40    45    47   am
    41    24    25   ar
    42    24    26   ar
    43    44    43    1
    44    38    43   am
    45    38    37    1
    46    93    92    1
    47    93    96    1
    48    40    41    1
    49    40    37    1
    50    25    27   ar
    51    42    41    1
    52    42    36    1
    53    48    47    1
    54    48    49    1
    55    48    51    1
    56    26    28   ar
    57    99    97   am
    58    36    37    1
    59    97    96    1
    60    97    98    2
    61    50    49    2
    62    49    52   am
    63    27    29   ar
    64    28    29   ar
    65    52    53    1
    66    53    54    1
    67    34    35    1
    68    34    31    1
    69    31    30    1
    70    31    32    1
    71    75    74    1
    72    54    56   am
    73    54    55    2
    74    76    74    1
    75    74    71    1
    76    56    57    1
    77    84    82    1
    78    63    62    1
    79    32    33    2
    80    82    81    1
    81    91    89    1
    82    61    62    1
    83    61    60    1
    84    71    70    1
    85    71    72    1
    86    57    60    1
    87    57    58    1
    88    70    66   am
    89    77    72   am
    90    77    78    1
    91    64    58   am
    92    64    65    1
    93    89    90    1
    94    89    86    1
    95    72    73    2
    96    58    59    2
    97    81    78    1
    98    81    83    1
    99    68    69    1
   100    68    65    1
   101    78    79    1
   102    66    65    1
   103    66    67    2
   104    86    85    1
   105    86    87    1
   106    88    87    2
   107    79    80    2
