@<TRIPOS>MOLECULE
tmp/2vegA00.pdb
 127 115 0 0 0
SMALL
GASTEIGER

@<TRIPOS>ATOM
      1  N         38.0910   53.3160   -2.6480 N.3     9  ILE9       -0.1245
      2  CA        37.0330   52.7330   -3.4300 C.3     9  ILE9        0.1561
      3  C         37.1080   53.3810   -4.8230 C.2     9  ILE9        0.2260
      4  O         37.2810   54.6120   -4.9320 O.2     9  ILE9       -0.2867
      5  CB        35.6780   52.9810   -2.7260 C.3     9  ILE9        0.0252
      6  CG1       35.6560   52.3120   -1.3590 C.3     9  ILE9        0.0019
      7  CG2       34.5390   52.5080   -3.5420 C.3     9  ILE9        0.0019
      8  CD1       34.4630   52.7760   -0.4460 C.3     9  ILE9        0.0001
      9  N         34.5740   52.8970   -8.0690 N.3    11  ASN11      -0.1240
     10  CA        33.3870   52.2760   -8.6630 C.3    11  ASN11       0.1653
     11  C         33.2970   52.7710  -10.0900 C.2    11  ASN11       0.2266
     12  O         33.1240   53.9550  -10.3550 O.2    11  ASN11      -0.2867
     13  CB        32.0960   52.6160   -7.9010 C.3    11  ASN11       0.1155
     14  CG        32.0160   51.9750   -6.5260 C.2    11  ASN11       0.2627
     15  OD1       32.0280   50.7540   -6.3700 O.2    11  ASN11      -0.2716
     16  ND2       31.8990   52.8150   -5.5150 N.am   11  ASN11      -0.0877
     17  N         36.1760   43.8900   -6.5560 N.3    71  ASP71      -0.1239
     18  CA        34.9130   43.8840   -5.8880 C.3    71  ASP71       0.1674
     19  C         33.8390   43.2590   -6.8020 C.2    71  ASP71       0.2266
     20  O         33.2460   43.9090   -7.6620 O.2    71  ASP71      -0.2867
     21  CB        34.5810   45.3400   -5.5970 C.3    71  ASP71       0.1410
     22  CG        33.6430   45.5110   -4.4490 C.2    71  ASP71       0.3668
     23  OD1       33.1050   44.5050   -3.8630 O.co2  71  ASP71      -0.2456
     24  OD2       33.4530   46.7120   -4.1350 O.co2  71  ASP71      -0.2456
     25  N         37.5410   41.0250   -3.3810 N.3    90  ASN90      -0.1240
     26  CA        36.5990   41.3850   -2.3360 C.3    90  ASN90       0.1653
     27  C         35.1970   40.8500   -2.7200 C.2    90  ASN90       0.2266
     28  O         34.5250   41.4090   -3.5970 O.2    90  ASN90      -0.2867
     29  CB        36.6080   42.9000   -2.0880 C.3    90  ASN90       0.1155
     30  CG        35.4840   43.3520   -1.1690 C.2    90  ASN90       0.2627
     31  OD1       34.9570   42.5740   -0.4040 O.2    90  ASN90      -0.2716
     32  ND2       35.1270   44.6270   -1.2440 N.am   90  ASN90      -0.0877
     33  N         31.5510   40.3930   -1.5990 N.3    92  ILE92      -0.1245
     34  CA        30.4880   40.7940   -0.6530 C.3    92  ILE92       0.1561
     35  C         29.4390   39.7310   -0.3010 C.2    92  ILE92       0.2260
     36  O         28.5660   39.9840    0.5370 O.2    92  ILE92      -0.2867
     37  CB        29.7300   42.1100   -1.0610 C.3    92  ILE92       0.0252
     38  CG1       28.9810   41.9530   -2.3990 C.3    92  ILE92       0.0019
     39  CG2       30.6810   43.3020   -1.0350 C.3    92  ILE92       0.0019
     40  CD1       27.9360   43.0510   -2.6980 C.3    92  ILE92       0.0001
     41  N         38.6220   38.4810    0.5030 N.3   113  VAL113     -0.1245
     42  CA        37.7320   39.0210    1.5480 C.3   113  VAL113      0.1561
     43  C         36.4110   38.2800    1.5160 C.2   113  VAL113      0.2260
     44  O         35.7310   38.2040    0.4820 O.2   113  VAL113     -0.2867
     45  CB        37.4460   40.5410    1.3900 C.3   113  VAL113      0.0252
     46  CG1       36.6620   41.0780    2.6020 C.3   113  VAL113      0.0019
     47  CG2       38.7630   41.3250    1.1350 C.3   113  VAL113      0.0019
     48  N         33.1140   38.6000    3.1400 N.3   115  MET115     -0.1245
     49  CA        32.2320   39.4300    3.8880 C.3   115  MET115      0.1570
     50  C         31.0580   38.6050    4.4020 C.2   115  MET115      0.2261
     51  O         30.5030   37.7430    3.6930 O.2   115  MET115     -0.2867
     52  CB        31.7370   40.5800    3.0190 C.3   115  MET115      0.0387
     53  CG        31.1770   41.7490    3.8220 C.3   115  MET115      0.0595
     54  SD        30.3140   42.9740    2.8400 S.3   115  MET115     -0.1393
     55  CE        28.6920   42.2120    2.7840 C.3   115  MET115      0.0692
     56  N         35.3540   40.2240    6.8550 N.3   177  ASP177     -0.1239
     57  CA        34.7050   41.5180    6.8500 C.3   177  ASP177      0.1674
     58  C         33.3690   41.2820    7.5050 C.2   177  ASP177      0.2266
     59  O         32.6270   40.4520    7.0310 O.2   177  ASP177     -0.2867
     60  CB        34.4720   41.9810    5.4080 C.3   177  ASP177      0.1410
     61  CG        33.9530   43.4140    5.3120 C.2   177  ASP177      0.3668
     62  OD1       33.0630   43.8240    6.0950 O.co2 177  ASP177     -0.2456
     63  OD2       34.4380   44.1510    4.4070 O.co2 177  ASP177     -0.2456
     64  N         29.2620   45.3510    7.8450 N.3   180  ILE180     -0.1245
     65  CA        28.6720   46.5950    8.3710 C.3   180  ILE180      0.1561
     66  C         27.8950   47.3370    7.2950 C.2   180  ILE180      0.2260
     67  O         28.3980   47.5010    6.1890 O.2   180  ILE180     -0.2867
     68  CB        29.7720   47.5730    8.9310 C.3   180  ILE180      0.0252
     69  CG1       30.6380   46.9310   10.0410 C.3   180  ILE180      0.0019
     70  CG2       29.1670   48.9050    9.3600 C.3   180  ILE180      0.0019
     71  CD1       29.9060   46.3110   11.2020 C.3   180  ILE180      0.0001
     72  N         24.9740   46.4180    5.8510 N.3   182  PHE182     -0.1241
     73  CA        24.2160   45.5540    4.9530 C.3   182  PHE182      0.1605
     74  C         23.0890   44.8530    5.7230 C.2   182  PHE182      0.2264
     75  O         23.3140   43.7940    6.3320 O.2   182  PHE182     -0.2867
     76  CB        25.1370   44.4870    4.3450 C.3   182  PHE182      0.0534
     77  CG        26.0560   44.9940    3.2500 C.ar  182  PHE182     -0.0203
     78  CD1       27.2900   45.5860    3.5560 C.ar  182  PHE182     -0.0042
     79  CD2       25.7140   44.8330    1.8980 C.ar  182  PHE182     -0.0042
     80  CE1       28.1440   46.0340    2.5350 C.ar  182  PHE182     -0.0003
     81  CE2       26.5790   45.2720    0.8710 C.ar  182  PHE182     -0.0003
     82  CZ        27.7870   45.8650    1.1880 C.ar  182  PHE182     -0.0000
     83  N         38.9430   43.1620    7.1160 N.3   207  PHE207     -0.1241
     84  CA        38.7860   44.1610    6.0610 C.3   207  PHE207      0.1605
     85  C         37.5140   44.8830    6.4650 C.2   207  PHE207      0.2264
     86  O         36.4890   44.2450    6.7280 O.2   207  PHE207     -0.2867
     87  CB        38.6540   43.4130    4.7320 C.3   207  PHE207      0.0534
     88  CG        38.5290   44.2870    3.5110 C.ar  207  PHE207     -0.0203
     89  CD1       39.6410   44.6800    2.8110 C.ar  207  PHE207     -0.0042
     90  CD2       37.2810   44.6370    3.0100 C.ar  207  PHE207     -0.0042
     91  CE1       39.5170   45.4570    1.6480 C.ar  207  PHE207     -0.0003
     92  CE2       37.1690   45.3880    1.8390 C.ar  207  PHE207     -0.0003
     93  CZ        38.2920   45.7820    1.1580 C.ar  207  PHE207     -0.0000
     94  N         34.5670   47.9380    6.1660 N.3   209  GLY209     -0.1225
     95  CA        33.9150   48.9990    5.4030 C.3   209  GLY209      0.1811
     96  C         33.3550   50.0720    6.3140 C.2   209  GLY209      0.2280
     97  O         32.2640   49.9150    6.8640 O.2   209  GLY209     -0.2866
     98  N         28.2740   55.1100    5.8300 N.3   213  LYS213     -0.1245
     99  CA        27.2810   54.1510    6.1970 C.3   213  LYS213      0.1561
    100  C         26.1850   54.9040    6.9070 C.2   213  LYS213      0.2260
    101  O         26.4700   55.7270    7.7600 O.2   213  LYS213     -0.2867
    102  CB        27.9070   53.0880    7.1160 C.3   213  LYS213      0.0271
    103  CG        29.0670   52.3260    6.4860 C.3   213  LYS213      0.0035
    104  CD        28.6590   51.6430    5.2130 C.3   213  LYS213      0.0206
    105  CE        29.5980   50.4850    4.9360 C.3   213  LYS213      0.1093
    106  NZ        29.1130   49.5780    3.8900 N.3   213  LYS213     -0.1314
    107  N         38.3050   49.8030    4.0530 N.3   258  ARG258     -0.1245
    108  CA        37.8080   50.2290    2.7430 C.3   258  ARG258      0.1563
    109  C         37.0630   51.5580    2.8470 C.2   258  ARG258      0.2260
    110  O         36.1190   51.6460    3.5860 O.2   258  ARG258     -0.2867
    111  CB        36.9380   49.1380    2.1680 C.3   258  ARG258      0.0307
    112  CG        36.6430   49.2100    0.7150 C.3   258  ARG258      0.0489
    113  CD        35.5050   48.2250    0.5090 C.3   258  ARG258      0.2205
    114  NE        34.8960   48.3740   -0.8080 N.pl3 258  ARG258     -0.0865
    115  CZ        33.8460   49.1510   -1.0720 C.cat 258  ARG258      0.5346
    116  NH1       33.2540   49.8470   -0.1000 N.pl3 258  ARG258      0.1354
    117  NH2       33.3820   49.2160   -2.3080 N.pl3 258  ARG258      0.1354
    118  N         36.0790   55.8440    1.1000 N.3   260  HIS260     -0.1241
    119  CA        35.9290   56.8370    0.0330 C.3   260  HIS260      0.1621
    120  C         37.0130   57.9070    0.0970 C.2   260  HIS260      0.2264
    121  O         37.7640   58.0450   -0.8730 O.2   260  HIS260     -0.2867
    122  CB        34.5100   57.4550    0.0020 C.3   260  HIS260      0.0745
    123  CG        33.4300   56.4460   -0.2390 C.ar  260  HIS260      0.0817
    124  ND1       32.8560   55.7170    0.7820 N.ar  260  HIS260     -0.2268
    125  CD2       32.8640   55.9990   -1.3860 C.ar  260  HIS260      0.1154
    126  CE1       31.9750   54.8720    0.2760 C.ar  260  HIS260      0.1986
    127  NE2       31.9750   55.0110   -1.0370 N.ar  260  HIS260     -0.2212
@<TRIPOS>BOND
     1    12    11    2
     2    11    10    1
     3    10     9    1
     4    10    13    1
     5    13    14    1
     6    20    19    2
     7    19    18    1
     8    17    18    1
     9    14    15    2
    10    14    16   am
    11    18    21    1
    12    21    22    1
    13     4     3    2
    14     3     2    1
    15    22    24   ar
    16    22    23   ar
    17    28    27    2
    18     7     5    1
    19     2     5    1
    20     2     1    1
    21    25    26    1
    22     5     6    1
    23    27    26    1
    24    40    38    1
    25    38    37    1
    26    26    29    1
    27   117   115    1
    28    29    30    1
    29    33    34    1
    30   125   127   ar
    31   125   123   ar
    32     6     8    1
    33    32    30   am
    34    30    31    2
    35   115   114    2
    36   115   116    1
    37    37    39    1
    38    37    34    1
    39   127   126   ar
    40   121   120    2
    41   114   113    1
    42    34    35    1
    43    35    36    2
    44   123   122    1
    45   123   124   ar
    46   122   119    1
    47   119   120    1
    48   119   118    1
    49   126   124   ar
    50    44    43    2
    51    41    42    1
    52   113   112    1
    53   112   111    1
    54    81    82   ar
    55    81    79   ar
    56    47    45    1
    57    93    91   ar
    58    93    92   ar
    59    82    80   ar
    60    45    42    1
    61    45    46    1
    62    43    42    1
    63    91    89   ar
    64    92    90   ar
    65    79    77   ar
    66   111   108    1
    67    80    78   ar
    68   108   109    1
    69   108   107    1
    70    55    54    1
    71    89    88   ar
    72    54    53    1
    73   109   110    2
    74    90    88   ar
    75    52    53    1
    76    52    49    1
    77    48    49    1
    78    77    78   ar
    79    77    76    1
    80    88    87    1
    81    51    50    2
    82    49    50    1
    83   106   105    1
    84    76    73    1
    85    63    61   ar
    86    87    84    1
    87   105   104    1
    88    73    74    1
    89    73    72    1
    90   104   103    1
    91    61    60    1
    92    61    62   ar
    93    95    94    1
    94    95    96    1
    95    60    57    1
    96    74    75    2
    97    98    99    1
    98    84    85    1
    99    84    83    1
   100    67    66    2
   101    99   100    1
   102    99   102    1
   103    96    97    2
   104    85    86    2
   105   103   102    1
   106    57    56    1
   107    57    58    1
   108   100   101    2
   109    59    58    2
   110    66    65    1
   111    64    65    1
   112    65    68    1
   113    68    70    1
   114    68    69    1
   115    69    71    1
