@<TRIPOS>MOLECULE
tmp/2vemA00.pdb
 91 84 0 0 0
SMALL
GASTEIGER

@<TRIPOS>ATOM
      1  N         22.4590   -4.9060    1.4330 N.3    10  ASN10      -0.1240
      2  CA        21.9060   -5.3250    0.1520 C.3    10  ASN10       0.1653
      3  C         23.0090   -5.9810   -0.6280 C.2    10  ASN10       0.2266
      4  O         23.9570   -5.3230   -1.0590 O.2    10  ASN10      -0.2867
      5  CB        21.3750   -4.1130   -0.6200 C.3    10  ASN10       0.1155
      6  CG        20.1600   -4.4380   -1.4850 C.2    10  ASN10       0.2627
      7  OD1       19.4570   -5.4440   -1.2900 O.2    10  ASN10      -0.2716
      8  ND2       19.8950   -3.5660   -2.4380 N.am   10  ASN10      -0.0877
      9  N         23.7800   -7.1180   -3.8340 N.3    12  LYS12      -0.1245
     10  CA        23.3200   -6.9420   -5.2140 C.3    12  LYS12       0.1561
     11  C         24.1680   -7.7370   -6.2220 C.2    12  LYS12       0.2260
     12  O         23.6420   -8.2510   -7.2250 O.2    12  LYS12      -0.2867
     13  CB        23.3060   -5.4510   -5.5710 C.3    12  LYS12       0.0271
     14  CG        22.3410   -4.6000   -4.7170 C.3    12  LYS12       0.0035
     15  CD        22.9320   -3.2220   -4.4020 C.3    12  LYS12       0.0206
     16  CE        23.2210   -2.4100   -5.6670 C.3    12  LYS12       0.1093
     17  NZ        23.7430   -1.0480   -5.3510 N.3    12  LYS12      -0.1314
     18  N         14.3060   -0.9310   -5.3290 N.3    82  HIS82      -0.1241
     19  CA        15.6790   -0.4430   -5.3990 C.3    82  HIS82       0.1621
     20  C         15.9000    0.1050   -6.7980 C.2    82  HIS82       0.2264
     21  O         15.2740   -0.3520   -7.7440 O.2    82  HIS82      -0.2867
     22  CB        16.6690   -1.5800   -5.0840 C.3    82  HIS82       0.0745
     23  CG        18.0480   -1.1110   -4.7150 C.ar   82  HIS82       0.0817
     24  ND1       19.0710   -0.9990   -5.6340 N.ar   82  HIS82      -0.2268
     25  CD2       18.5740   -0.7370   -3.5230 C.ar   82  HIS82       0.1154
     26  CE1       20.1610   -0.5670   -5.0250 C.ar   82  HIS82       0.1986
     27  NE2       19.8820   -0.3910   -3.7470 N.ar   82  HIS82      -0.2212
     28  N         16.7540    6.4610   -1.0310 N.3   154  GLU154     -0.1245
     29  CA        17.9960    6.1870   -1.7330 C.3   154  GLU154      0.1567
     30  C         18.1640    7.0600   -2.9650 C.2   154  GLU154      0.2260
     31  O         17.6380    6.7010   -4.0260 O.2   154  GLU154     -0.2867
     32  CB        18.0570    4.7380   -2.2080 C.3   154  GLU154      0.0388
     33  CG        18.6110    3.7470   -1.1970 C.3   154  GLU154      0.1160
     34  CD        19.4230    2.6250   -1.8520 C.2   154  GLU154      0.3649
     35  OE1       18.9050    2.0780   -2.8500 O.co2 154  GLU154     -0.2457
     36  OE2       20.5650    2.3110   -1.3880 O.co2 154  GLU154     -0.2457
     37  N         23.8640    6.3120   -4.9810 N.3   159  ILE159     -0.1231
     38  CA        24.0800    4.8740   -5.0640 C.3   159  ILE159      0.1692
     39  C         25.3730    4.5480   -5.8450 C.2   159  ILE159      0.2592
     40  O         25.4780    4.8240   -7.0440 O.2   159  ILE159     -0.2718
     41  CB        22.8450    4.1540   -5.6500 C.3   159  ILE159      0.0266
     42  CG1       21.6510    4.3230   -4.6990 C.3   159  ILE159      0.0019
     43  CG2       23.1350    2.6760   -5.8950 C.3   159  ILE159      0.0020
     44  CD1       20.3090    3.8780   -5.2790 C.3   159  ILE159      0.0001
     45  N         26.3600    4.0050   -5.1270 N.am  160  GLY160     -0.1957
     46  CA        27.5840    3.4530   -5.7140 C.3   160  GLY160      0.1869
     47  C         28.4690    4.4210   -6.4660 C.2   160  GLY160      0.2309
     48  O         29.4130    4.0030   -7.1520 O.2   160  GLY160     -0.2863
     49  N         22.8410    4.9450    0.0820 N.3   199  GLY199     -0.1210
     50  CA        23.6880    5.6050   -0.9120 C.3   199  GLY199      0.1956
     51  C         25.0060    6.1370   -0.3870 C.2   199  GLY199      0.2613
     52  O         25.0650    7.2610    0.1250 O.2   199  GLY199     -0.2717
     53  N         26.0700    5.3420   -0.5350 N.am  200  SER200     -0.1938
     54  CA        27.4570    5.7550   -0.2040 C.3   200  SER200      0.2055
     55  C         27.7040    5.8940    1.3020 C.2   200  SER200      0.2642
     56  O         28.5090    6.7170    1.7620 O.2   200  SER200     -0.2714
     57  CB        27.8970    7.0300   -0.9570 C.3   200  SER200      0.2130
     58  OG        28.0090    6.8170   -2.3540 O.3   200  SER200     -0.2179
     59  N         27.0190    5.0530    2.0590 N.am  201  VAL201     -0.1977
     60  CA        27.2190    4.9570    3.5050 C.3   201  VAL201      0.1596
     61  C         28.4840    4.1240    3.7800 C.2   201  VAL201      0.2287
     62  O         28.7270    3.1160    3.1080 O.2   201  VAL201     -0.2864
     63  CB        25.9660    4.3200    4.2000 C.3   201  VAL201      0.0276
     64  CG1       26.1150    4.2960    5.7320 C.3   201  VAL201      0.0022
     65  CG2       24.7090    5.0580    3.7920 C.3   201  VAL201      0.0022
     66  N         20.5600    1.4210    4.4910 N.3   219  LEU219     -0.1231
     67  CA        20.6840    0.3160    3.5440 C.3   219  LEU219      0.1693
     68  C         22.0580    0.4920    2.8690 C.2   219  LEU219      0.2592
     69  O         22.3940    1.5710    2.3750 O.2   219  LEU219     -0.2718
     70  CB        19.5080    0.3500    2.5530 C.3   219  LEU219      0.0284
     71  CG        19.2890   -0.7680    1.5090 C.3   219  LEU219      0.0019
     72  CD1       19.0530   -2.1770    2.0970 C.3   219  LEU219      0.0001
     73  CD2       18.1300   -0.3850    0.5960 C.3   219  LEU219      0.0001
     74  N         22.8830   -0.5440    2.9120 N.am  220  ALA220     -0.1966
     75  CA        24.2470   -0.4400    2.3600 C.3   220  ALA220      0.1728
     76  C         24.6610   -1.7360    1.7030 C.2   220  ALA220      0.2616
     77  O         23.8630   -2.6790    1.6020 O.2   220  ALA220     -0.2715
     78  CB        25.2660   -0.0360    3.4620 C.3   220  ALA220      0.0334
     79  N         25.9100   -1.7710    1.2500 N.am  221  GLY221     -0.1955
     80  CA        26.5040   -2.9550    0.6200 C.3   221  GLY221      0.1869
     81  C         26.7620   -4.0440    1.6410 C.2   221  GLY221      0.2309
     82  O         26.9590   -3.7730    2.8480 O.2   221  GLY221     -0.2863
     83  N         29.3720   -5.6830    2.8940 N.3   223  LYS223     -0.1245
     84  CA        30.8440   -5.6260    3.0010 C.3   223  LYS223      0.1561
     85  C         31.2700   -5.6220    4.4850 C.2   223  LYS223      0.2260
     86  O         30.4170   -5.4520    5.3420 O.2   223  LYS223     -0.2867
     87  CB        31.3890   -4.4010    2.2590 C.3   223  LYS223      0.0271
     88  CG        31.0480   -4.3730    0.7700 C.3   223  LYS223      0.0035
     89  CD        31.2050   -2.9830    0.1480 C.3   223  LYS223      0.0206
     90  CE        31.0270   -1.8660    1.1640 C.3   223  LYS223      0.1093
     91  NZ        29.6490   -1.8640    1.7370 N.3   223  LYS223     -0.1314
@<TRIPOS>BOND
     1    21    20    2
     2    12    11    2
     3    48    47    2
     4    40    39    2
     5    20    19    1
     6    47    46    1
     7    11    10    1
     8    43    41    1
     9    39    45   am
    10    39    38    1
    11    46    45    1
    12    16    17    1
    13    16    15    1
    14    41    38    1
    15    41    42    1
    16    24    26   ar
    17    24    23   ar
    18    13    10    1
    19    13    14    1
    20    19    18    1
    21    19    22    1
    22    44    42    1
    23    10     9    1
    24    22    23    1
    25    38    37    1
    26    26    27   ar
    27    14    15    1
    28    23    25   ar
    29    31    30    2
    30    27    25   ar
    31    30    29    1
    32    35    34   ar
    33     8     6   am
    34    58    57    1
    35    32    29    1
    36    32    33    1
    37    34    36   ar
    38    34    33    1
    39    29    28    1
    40     6     7    2
    41     6     5    1
    42     4     3    2
    43    57    54    1
    44    50    51    1
    45    50    49    1
    46     3     2    1
    47     5     2    1
    48    53    51   am
    49    53    54    1
    50    51    52    2
    51    54    55    1
    52    89    88    1
    53    89    90    1
    54     2     1    1
    55    73    71    1
    56    80    79    1
    57    80    81    1
    58    88    87    1
    59    90    91    1
    60    79    76   am
    61    55    56    2
    62    55    59   am
    63    71    72    1
    64    71    70    1
    65    77    76    2
    66    81    82    2
    67    76    75    1
    68    59    60    1
    69    87    84    1
    70    75    74    1
    71    75    78    1
    72    69    68    2
    73    70    67    1
    74    68    74   am
    75    68    67    1
    76    83    84    1
    77    84    85    1
    78    62    61    2
    79    60    61    1
    80    60    63    1
    81    67    66    1
    82    65    63    1
    83    63    64    1
    84    85    86    2
