@<TRIPOS>MOLECULE
tmp/2venB00.pdb
 96 89 0 0 0
SMALL
GASTEIGER

@<TRIPOS>ATOM
      1  N         16.6560  -17.9630   33.5790 N.3    10  ASN10      -0.1240
      2  CA        15.9610  -17.0970   34.5060 C.3    10  ASN10       0.1653
      3  C         16.5800  -17.2650   35.9140 C.2    10  ASN10       0.2266
      4  O         16.4080  -18.3050   36.5630 O.2    10  ASN10      -0.2867
      5  CB        14.4700  -17.4570   34.4740 C.3    10  ASN10       0.1155
      6  CG        13.5830  -16.4030   35.1170 C.2    10  ASN10       0.2627
      7  OD1       13.7170  -15.2090   34.8780 O.2    10  ASN10      -0.2716
      8  ND2       12.6610  -16.8530   35.9210 N.am   10  ASN10      -0.0877
      9  N         17.2930  -17.0050   39.8100 N.3    12  LYS12      -0.1245
     10  CA        16.5310  -16.9610   41.0570 C.3    12  LYS12       0.1561
     11  C         17.4250  -17.0520   42.3020 C.2    12  LYS12       0.2260
     12  O         18.5250  -17.6070   42.2520 O.2    12  LYS12      -0.2867
     13  CB        15.4380  -18.0290   41.0790 C.3    12  LYS12       0.0271
     14  CG        15.9150  -19.4800   40.9870 C.3    12  LYS12       0.0035
     15  CD        14.7120  -20.3960   40.7360 C.3    12  LYS12       0.0206
     16  CE        13.7490  -19.8090   39.6580 C.3    12  LYS12       0.1093
     17  NZ        14.3660  -19.6930   38.2840 N.3    12  LYS12      -0.1314
     18  N          6.0650  -14.6930   36.0030 N.3    86  HIS86      -0.1241
     19  CA         6.6040  -16.0160   36.3840 C.3    86  HIS86       0.1621
     20  C          5.8210  -16.5080   37.5950 C.2    86  HIS86       0.2264
     21  O          5.2800  -15.7040   38.3390 O.2    86  HIS86      -0.2867
     22  CB         8.1290  -15.9390   36.6810 C.3    86  HIS86       0.0745
     23  CG         8.8060  -17.2750   36.7460 C.ar   86  HIS86       0.0817
     24  ND1        9.2480  -17.8460   37.9240 N.ar   86  HIS86      -0.2268
     25  CD2        9.1140  -18.1570   35.7640 C.ar   86  HIS86       0.1154
     26  CE1        9.7970  -19.0220   37.6630 C.ar   86  HIS86       0.1986
     27  NE2        9.7260  -19.2320   36.3580 N.ar   86  HIS86      -0.2212
     28  N          4.5770  -22.7120   31.3730 N.3   158  GLU158     -0.1245
     29  CA         5.2160  -23.4130   32.4960 C.3   158  GLU158      0.1567
     30  C          4.1610  -24.0260   33.4120 C.2   158  GLU158      0.2260
     31  O          3.4800  -23.3130   34.1440 O.2   158  GLU158     -0.2867
     32  CB         6.0790  -22.4600   33.3190 C.3   158  GLU158      0.0388
     33  CG         7.3580  -21.9810   32.6680 C.3   158  GLU158      0.1160
     34  CD         8.4270  -21.6510   33.7050 C.2   158  GLU158      0.3649
     35  OE1        9.4900  -22.3180   33.7230 O.co2 158  GLU158     -0.2457
     36  OE2        8.1950  -20.7320   34.5200 O.co2 158  GLU158     -0.2457
     37  N          5.3650  -28.5050   37.4250 N.3   162  ALA162     -0.1231
     38  CA         6.6670  -28.8780   36.8490 C.3   162  ALA162      0.1694
     39  C          7.8410  -27.9950   37.3360 C.2   162  ALA162      0.2592
     40  O          9.0030  -28.2490   37.0170 O.2   162  ALA162     -0.2718
     41  CB         6.5810  -28.8850   35.2880 C.3   162  ALA162      0.0304
     42  N          7.5410  -26.9790   38.1350 N.am  163  ILE163     -0.1966
     43  CA         8.5420  -25.9810   38.5130 C.3   163  ILE163      0.1727
     44  C          9.2680  -26.3940   39.7940 C.2   163  ILE163      0.2616
     45  O          8.6940  -26.3620   40.8850 O.2   163  ILE163     -0.2715
     46  CB         7.9160  -24.5460   38.5720 C.3   163  ILE163      0.0290
     47  CG1        7.3870  -24.1610   37.1750 C.3   163  ILE163      0.0022
     48  CG2        8.9600  -23.4960   39.0270 C.3   163  ILE163      0.0023
     49  CD1        6.6450  -22.7930   37.0840 C.3   163  ILE163      0.0001
     50  N         10.5190  -26.8350   39.6540 N.am  164  GLY164     -0.1955
     51  CA        11.3220  -27.2250   40.8180 C.3   164  GLY164      0.1869
     52  C         11.0130  -28.6080   41.3870 C.2   164  GLY164      0.2309
     53  O         11.6670  -29.0600   42.3280 O.2   164  GLY164     -0.2863
     54  N          9.7840  -25.6430   33.1580 N.3   203  GLY203     -0.1210
     55  CA         9.4140  -26.6110   34.1970 C.3   203  GLY203      0.1956
     56  C         10.2190  -27.9030   34.1180 C.2   203  GLY203      0.2613
     57  O          9.8810  -28.8440   33.3610 O.2   203  GLY203     -0.2717
     58  N         11.2830  -27.9590   34.9170 N.am  204  SER204     -0.1938
     59  CA        12.1580  -29.1300   35.0090 C.3   204  SER204      0.2055
     60  C         12.8070  -29.5820   33.6810 C.2   204  SER204      0.2642
     61  O         12.9460  -30.7900   33.4330 O.2   204  SER204     -0.2714
     62  CB        11.4240  -30.3060   35.6910 C.3   204  SER204      0.2130
     63  OG        10.9800  -29.9510   36.9940 O.3   204  SER204     -0.2179
     64  N         13.2140  -28.6220   32.8540 N.am  205  VAL205     -0.1977
     65  CA        13.9560  -28.8960   31.6130 C.3   205  VAL205      0.1596
     66  C         15.4010  -29.2470   31.9750 C.2   205  VAL205      0.2287
     67  O         16.0110  -28.6160   32.8340 O.2   205  VAL205     -0.2864
     68  CB        13.8970  -27.6630   30.5980 C.3   205  VAL205      0.0276
     69  CG1       14.7070  -27.9170   29.3020 C.3   205  VAL205      0.0022
     70  CG2       12.4620  -27.3050   30.2270 C.3   205  VAL205      0.0022
     71  N         12.3470  -21.9050   28.8040 N.3   223  LEU223     -0.1231
     72  CA        12.6620  -21.0120   29.9340 C.3   223  LEU223      0.1693
     73  C         13.2590  -21.9360   30.9750 C.2   223  LEU223      0.2592
     74  O         12.5870  -22.8560   31.4650 O.2   223  LEU223     -0.2718
     75  CB        11.4260  -20.2730   30.4990 C.3   223  LEU223      0.0284
     76  CG        11.7060  -19.1620   31.5500 C.3   223  LEU223      0.0019
     77  CD1       12.6550  -18.0550   31.0270 C.3   223  LEU223      0.0001
     78  CD2       10.4080  -18.4980   32.1430 C.3   223  LEU223      0.0001
     79  N         14.5340  -21.7190   31.2930 N.am  224  ALA224     -0.1966
     80  CA        15.2550  -22.6580   32.1230 C.3   224  ALA224      0.1728
     81  C         16.0320  -21.9400   33.2020 C.2   224  ALA224      0.2616
     82  O         15.9940  -20.7140   33.3000 O.2   224  ALA224     -0.2715
     83  CB        16.2110  -23.5490   31.2440 C.3   224  ALA224      0.0334
     84  N         16.7150  -22.7340   34.0210 N.am  225  GLY225     -0.1955
     85  CA        17.5110  -22.2460   35.1210 C.3   225  GLY225      0.1869
     86  C         18.8270  -21.7280   34.6170 C.2   225  GLY225      0.2309
     87  O         19.3150  -22.1300   33.5660 O.2   225  GLY225     -0.2863
     88  N         22.2390  -22.1290   35.1380 N.3   227  LYS227     -0.1245
     89  CA        23.1320  -23.1410   35.7040 C.3   227  LYS227      0.1561
     90  C         23.9050  -23.8420   34.5810 C.2   227  LYS227      0.2260
     91  O         23.6240  -23.5650   33.4090 O.2   227  LYS227     -0.2867
     92  CB        22.3370  -24.1240   36.5590 C.3   227  LYS227      0.0271
     93  CG        21.2510  -24.8800   35.8650 C.3   227  LYS227      0.0035
     94  CD        20.5200  -25.7270   36.8970 C.3   227  LYS227      0.0206
     95  CE        19.0740  -25.9490   36.5000 C.3   227  LYS227      0.1093
     96  NZ        18.2790  -26.3660   37.6960 N.3   227  LYS227     -0.1314
@<TRIPOS>BOND
     1    71    72    1
     2    69    68    1
     3    72    75    1
     4    72    73    1
     5    70    68    1
     6    75    76    1
     7    68    65    1
     8    73    79   am
     9    73    74    2
    10    77    76    1
    11    83    80    1
    12    79    80    1
    13    28    29    1
    14    76    78    1
    15    65    66    1
    16    65    64    1
    17    66    67    2
    18    80    81    1
    19    29    32    1
    20    29    30    1
    21    33    32    1
    22    33    34    1
    23    64    60   am
    24    54    55    1
    25    81    82    2
    26    81    84   am
    27    57    56    2
    28    91    90    2
    29    30    31    2
    30    61    60    2
    31    87    86    2
    32     1     2    1
    33    60    59    1
    34    34    35   ar
    35    34    36   ar
    36    84    85    1
    37    56    55    1
    38    56    58   am
    39     5     2    1
    40     5     6    1
    41     2     3    1
    42    90    89    1
    43    86    85    1
    44     7     6    2
    45    58    59    1
    46    59    62    1
    47     6     8   am
    48    88    89    1
    49    41    38    1
    50    62    63    1
    51    89    92    1
    52    25    27   ar
    53    25    23   ar
    54    93    92    1
    55    93    94    1
    56     3     4    2
    57    18    19    1
    58    27    26   ar
    59    19    22    1
    60    19    20    1
    61    95    94    1
    62    95    96    1
    63    22    23    1
    64    23    24   ar
    65    38    39    1
    66    38    37    1
    67    40    39    2
    68    49    47    1
    69    47    46    1
    70    39    42   am
    71    20    21    2
    72    26    24   ar
    73    42    43    1
    74    17    16    1
    75    43    46    1
    76    43    44    1
    77    46    48    1
    78    50    44   am
    79    50    51    1
    80    16    15    1
    81    44    45    2
    82     9    10    1
    83    15    14    1
    84    51    52    1
    85    14    13    1
    86    10    13    1
    87    10    11    1
    88    52    53    2
    89    12    11    2
