@<TRIPOS>MOLECULE
tmp/2veoA00.pdb
 177 166 0 0 0
SMALL
GASTEIGER

@<TRIPOS>ATOM
      1  N         46.5210    9.1670   41.6560 N.3    85  ASP85      -0.1239
      2  CA        47.2090    8.3760   42.6900 C.3    85  ASP85       0.1674
      3  C         48.5400    7.7450   42.2600 C.2    85  ASP85       0.2266
      4  O         48.7660    6.5480   42.4630 O.2    85  ASP85      -0.2867
      5  CB        46.2630    7.3140   43.2750 C.3    85  ASP85       0.1410
      6  CG        45.0740    7.9230   44.0110 C.2    85  ASP85       0.3668
      7  OD1       44.8080    9.1340   43.8520 O.co2  85  ASP85      -0.2456
      8  OD2       44.3970    7.1790   44.7500 O.co2  85  ASP85      -0.2456
      9  N         51.8710   13.9460   43.5760 N.3   139  PHE139     -0.1227
     10  CA        50.6850   13.3730   44.2120 C.3   139  PHE139      0.1736
     11  C         50.5160   13.8530   45.6500 C.2   139  PHE139      0.2595
     12  O         51.4600   13.8230   46.4410 O.2   139  PHE139     -0.2718
     13  CB        50.7320   11.8400   44.1580 C.3   139  PHE139      0.0547
     14  CG        49.6530   11.1590   44.9600 C.ar  139  PHE139     -0.0202
     15  CD1       48.3070   11.3300   44.6380 C.ar  139  PHE139     -0.0042
     16  CD2       49.9850   10.3310   46.0290 C.ar  139  PHE139     -0.0042
     17  CE1       47.3070   10.6980   45.3800 C.ar  139  PHE139     -0.0003
     18  CE2       48.9950    9.6920   46.7740 C.ar  139  PHE139     -0.0003
     19  CZ        47.6520    9.8750   46.4460 C.ar  139  PHE139     -0.0000
     20  N         49.3010   14.3080   45.9530 N.am  140  ILE140     -0.1980
     21  CA        48.8750   14.7330   47.2940 C.3   140  ILE140      0.1595
     22  C         49.4940   16.0570   47.7710 C.2   140  ILE140      0.2287
     23  O         49.3740   16.4300   48.9400 O.2   140  ILE140     -0.2864
     24  CB        48.9680   13.5580   48.3480 C.3   140  ILE140      0.0276
     25  CG1       47.6650   13.4370   49.1410 C.3   140  ILE140      0.0022
     26  CG2       50.2090   13.6590   49.2510 C.3   140  ILE140      0.0022
     27  CD1       46.5160   12.8090   48.3460 C.3   140  ILE140      0.0001
     28  N         38.1580   10.1090   46.3260 N.3   174  SER174     -0.1202
     29  CA        39.4680    9.5510   46.7130 C.3   174  SER174      0.2020
     30  C         40.5860   10.5890   46.5170 C.2   174  SER174      0.2619
     31  O         40.4960   11.7020   47.0410 O.2   174  SER174     -0.2717
     32  CB        39.7430    8.2460   45.9390 C.3   174  SER174      0.2103
     33  OG        40.5920    7.3690   46.6610 O.3   174  SER174     -0.2182
     34  N         41.6230   10.2390   45.7570 N.am  175  GLY175     -0.1956
     35  CA        42.6640   11.1980   45.3750 C.3   175  GLY175      0.1869
     36  C         42.1120   12.4210   44.6550 C.2   175  GLY175      0.2309
     37  O         42.6760   13.5140   44.7480 O.2   175  GLY175     -0.2863
     38  N         40.7630   12.5160   51.5170 N.3   205  PRO205     -0.2116
     39  CA        41.9690   12.6920   52.3170 C.3   205  PRO205      0.1372
     40  C         42.1690   14.1720   52.6180 C.2   205  PRO205      0.2244
     41  O         42.4320   14.9620   51.7070 O.2   205  PRO205     -0.2868
     42  CB        43.0890   12.1730   51.3960 C.3   205  PRO205      0.0268
     43  CG        42.3990   11.5740   50.1980 C.3   205  PRO205      0.0207
     44  CD        41.0940   12.2810   50.1030 C.3   205  PRO205      0.0892
     45  N         47.5390   14.9510   55.0740 N.3   208  ALA208     -0.1231
     46  CA        48.6250   14.1430   54.5180 C.3   208  ALA208      0.1694
     47  C         49.1820   13.1680   55.5580 C.2   208  ALA208      0.2591
     48  O         49.3800   11.9880   55.2610 O.2   208  ALA208     -0.2718
     49  CB        49.7330   15.0330   53.9590 C.3   208  ALA208      0.0304
     50  N         49.4080   13.6660   56.7750 N.am  209  LYS209     -0.1980
     51  CA        49.9630   12.8600   57.8670 C.3   209  LYS209      0.1596
     52  C         49.0370   11.7200   58.3060 C.2   209  LYS209      0.2287
     53  O         49.4860   10.5850   58.4580 O.2   209  LYS209     -0.2864
     54  CB        50.3190   13.7460   59.0660 C.3   209  LYS209      0.0298
     55  CG        51.2040   13.0660   60.1060 C.3   209  LYS209      0.0038
     56  CD        51.2780   13.8860   61.3860 C.3   209  LYS209      0.0206
     57  CE        52.1490   13.2040   62.4370 C.3   209  LYS209      0.1093
     58  NZ        52.2030   13.9920   63.7080 N.3   209  LYS209     -0.1314
     59  N         46.5660   10.2960   56.6630 N.3   211  THR211     -0.1203
     60  CA        46.4130    9.3110   55.5990 C.3   211  THR211      0.1994
     61  C         47.6520    8.4130   55.5390 C.2   211  THR211      0.2617
     62  O         47.5340    7.2030   55.3480 O.2   211  THR211     -0.2717
     63  CB        46.1440    9.9720   54.2280 C.3   211  THR211      0.1784
     64  OG1       45.2370   11.0690   54.3930 O.3   211  THR211     -0.2211
     65  CG2       45.5300    8.9720   53.2620 C.3   211  THR211      0.0376
     66  N         48.8300    9.0070   55.7230 N.am  212  PHE212     -0.1975
     67  CA        50.0810    8.2460   55.7630 C.3   212  PHE212      0.1639
     68  C         50.0900    7.2020   56.8830 C.2   212  PHE212      0.2290
     69  O         50.3620    6.0270   56.6340 O.2   212  PHE212     -0.2864
     70  CB        51.2940    9.1760   55.8920 C.3   212  PHE212      0.0560
     71  CG        52.6090    8.4460   56.0090 C.ar  212  PHE212     -0.0200
     72  CD1       53.3310    8.1010   54.8720 C.ar  212  PHE212     -0.0042
     73  CD2       53.1190    8.0970   57.2580 C.ar  212  PHE212     -0.0042
     74  CE1       54.5440    7.4210   54.9780 C.ar  212  PHE212     -0.0003
     75  CE2       54.3280    7.4150   57.3710 C.ar  212  PHE212     -0.0003
     76  CZ        55.0430    7.0780   56.2290 C.ar  212  PHE212     -0.0000
     77  N         47.6690    4.3330   56.2850 N.3   215  LEU215     -0.1245
     78  CA        48.0050    3.4170   55.1950 C.3   215  LEU215      0.1561
     79  C         49.3080    2.6490   55.3920 C.2   215  LEU215      0.2260
     80  O         49.4380    1.5180   54.9170 O.2   215  LEU215     -0.2867
     81  CB        48.0600    4.1720   53.8620 C.3   215  LEU215      0.0270
     82  CG        46.7420    4.6340   53.2360 C.3   215  LEU215      0.0019
     83  CD1       47.0150    5.6780   52.1740 C.3   215  LEU215      0.0001
     84  CD2       45.9710    3.4620   52.6490 C.3   215  LEU215      0.0001
     85  N         50.3890    3.8530   48.5130 N.3   223  PHE223     -0.1227
     86  CA        49.8960    5.2310   48.5180 C.3   223  PHE223      0.1736
     87  C         50.5580    6.0890   49.5940 C.2   223  PHE223      0.2595
     88  O         50.6600    7.3080   49.4460 O.2   223  PHE223     -0.2718
     89  CB        48.3690    5.2720   48.6480 C.3   223  PHE223      0.0547
     90  CG        47.6480    4.6020   47.5110 C.ar  223  PHE223     -0.0202
     91  CD1       47.8860    4.9870   46.1930 C.ar  223  PHE223     -0.0042
     92  CD2       46.7290    3.5900   47.7570 C.ar  223  PHE223     -0.0042
     93  CE1       47.2260    4.3660   45.1360 C.ar  223  PHE223     -0.0003
     94  CE2       46.0590    2.9650   46.7060 C.ar  223  PHE223     -0.0003
     95  CZ        46.3090    3.3550   45.3930 C.ar  223  PHE223     -0.0000
     96  N         51.0040    5.4520   50.6720 N.am  224  ALA224     -0.1980
     97  CA        51.8020    6.1330   51.6820 C.3   224  ALA224      0.1597
     98  C         53.1430    6.5550   51.0750 C.2   224  ALA224      0.2287
     99  O         53.5880    7.6820   51.2690 O.2   224  ALA224     -0.2864
    100  CB        52.0070    5.2400   52.8990 C.3   224  ALA224      0.0319
    101  N         52.5850    9.2500   48.4030 N.3   227  GLY227     -0.1210
    102  CA        52.3750   10.5230   49.0880 C.3   227  GLY227      0.1956
    103  C         53.6730   11.1700   49.5320 C.2   227  GLY227      0.2611
    104  O         53.8300   12.3870   49.4340 O.2   227  GLY227     -0.2717
    105  N         54.5990   10.3530   50.0290 N.am  228  VAL228     -0.1979
    106  CA        55.9440   10.8100   50.3920 C.3   228  VAL228      0.1595
    107  C         56.7010   11.2860   49.1450 C.2   228  VAL228      0.2287
    108  O         57.3750   12.3180   49.1720 O.2   228  VAL228     -0.2864
    109  CB        56.7390    9.6970   51.1300 C.3   228  VAL228      0.0276
    110  CG1       58.2250   10.0370   51.2220 C.3   228  VAL228      0.0022
    111  CG2       56.1690    9.4690   52.5160 C.3   228  VAL228      0.0022
    112  N         54.8480   14.6910   47.8130 N.3   231  LEU231     -0.1245
    113  CA        55.1650   15.8370   48.6630 C.3   231  LEU231      0.1561
    114  C         56.6080   16.3010   48.4670 C.2   231  LEU231      0.2260
    115  O         56.8690   17.4990   48.3880 O.2   231  LEU231     -0.2867
    116  CB        54.8980   15.5210   50.1400 C.3   231  LEU231      0.0270
    117  CG        53.4480   15.4280   50.6220 C.3   231  LEU231      0.0019
    118  CD1       53.4290   15.1700   52.1170 C.3   231  LEU231      0.0001
    119  CD2       52.6510   16.6860   50.2850 C.3   231  LEU231      0.0001
    120  N         62.0160   19.0000   51.6590 N.3   238  MET238     -0.1245
    121  CA        61.6480   17.6480   52.0790 C.3   238  MET238      0.1570
    122  C         62.3910   16.5990   51.2470 C.2   238  MET238      0.2261
    123  O         62.8490   15.5860   51.7810 O.2   238  MET238     -0.2867
    124  CB        60.1330   17.4510   51.9700 C.3   238  MET238      0.0387
    125  CG        59.6240   16.0980   52.4440 C.3   238  MET238      0.0595
    126  SD        57.8260   16.0110   52.4280 S.3   238  MET238     -0.1393
    127  CE        57.5610   14.2820   52.8170 C.3   238  MET238      0.0692
    128  N         58.6990   11.8210   60.5070 N.3   286  LEU286     -0.1245
    129  CA        57.5630   12.7430   60.4050 C.3   286  LEU286      0.1561
    130  C         57.5860   13.8820   61.4250 C.2   286  LEU286      0.2260
    131  O         57.0800   14.9700   61.1510 O.2   286  LEU286     -0.2867
    132  CB        56.2370   11.9760   60.5070 C.3   286  LEU286      0.0270
    133  CG        55.5720   11.4170   59.2390 C.3   286  LEU286      0.0019
    134  CD1       56.4590   10.4320   58.4780 C.3   286  LEU286      0.0001
    135  CD2       54.2390   10.7690   59.5940 C.3   286  LEU286      0.0001
    136  N         59.9540   18.3090   57.7490 N.3   291  ILE291     -0.1245
    137  CA        58.7770   17.4940   57.4370 C.3   291  ILE291      0.1561
    138  C         57.5750   17.8360   58.3240 C.2   291  ILE291      0.2260
    139  O         56.4670   18.0360   57.8170 O.2   291  ILE291     -0.2867
    140  CB        59.1000   15.9740   57.4650 C.3   291  ILE291      0.0252
    141  CG1       60.0590   15.6230   56.3190 C.3   291  ILE291      0.0019
    142  CG2       57.8220   15.1430   57.3700 C.3   291  ILE291      0.0019
    143  CD1       60.4920   14.1680   56.2710 C.3   291  ILE291      0.0001
    144  N         53.9650   19.1210   56.8330 N.3   295  LEU295     -0.1245
    145  CA        52.7370   18.3640   57.0860 C.3   295  LEU295      0.1561
    146  C         51.6490   19.2020   57.7670 C.2   295  LEU295      0.2260
    147  O         50.4590   18.9220   57.6150 O.2   295  LEU295     -0.2867
    148  CB        53.0310   17.0960   57.8990 C.3   295  LEU295      0.0270
    149  CG        53.8280   15.9700   57.2270 C.3   295  LEU295      0.0019
    150  CD1       54.0700   14.8410   58.2120 C.3   295  LEU295      0.0001
    151  CD2       53.1350   15.4420   55.9760 C.3   295  LEU295      0.0001
    152  N         40.6990    2.6220   53.2150 N.3   326  ILE326     -0.1231
    153  CA        41.7470    3.2440   52.4010 C.3   326  ILE326      0.1692
    154  C         41.9840    4.7070   52.8090 C.2   326  ILE326      0.2591
    155  O         43.1230    5.1180   53.0370 O.2   326  ILE326     -0.2718
    156  CB        41.4470    3.1170   50.8760 C.3   326  ILE326      0.0266
    157  CG1       41.3820    1.6380   50.4660 C.3   326  ILE326      0.0019
    158  CG2       42.5000    3.8660   50.0500 C.3   326  ILE326      0.0020
    159  CD1       40.8550    1.3820   49.0620 C.3   326  ILE326      0.0001
    160  N         40.9070    5.4820   52.8980 N.am  327  VAL327     -0.1980
    161  CA        40.9860    6.8700   53.3360 C.3   327  VAL327      0.1595
    162  C         40.2420    7.0080   54.6650 C.2   327  VAL327      0.2287
    163  O         39.0240    6.8140   54.7140 O.2   327  VAL327     -0.2864
    164  CB        40.4020    7.8480   52.2810 C.3   327  VAL327      0.0276
    165  CG1       40.4280    9.2720   52.8030 C.3   327  VAL327      0.0022
    166  CG2       41.1690    7.7530   50.9620 C.3   327  VAL327      0.0022
    167  N         41.6860   -0.0430   42.4450 N.3   421  PHE421     -0.1241
    168  CA        42.3170   -0.5300   43.6730 C.3   421  PHE421      0.1605
    169  C         42.2810   -2.0540   43.8210 C.2   421  PHE421      0.2264
    170  O         42.8840   -2.6040   44.7440 O.2   421  PHE421     -0.2867
    171  CB        41.6710    0.1370   44.8950 C.3   421  PHE421      0.0534
    172  CG        41.6930    1.6420   44.8470 C.ar  421  PHE421     -0.0203
    173  CD1       42.7630    2.3530   45.3800 C.ar  421  PHE421     -0.0042
    174  CD2       40.6460    2.3490   44.2640 C.ar  421  PHE421     -0.0042
    175  CE1       42.7880    3.7430   45.3360 C.ar  421  PHE421     -0.0003
    176  CE2       40.6630    3.7390   44.2130 C.ar  421  PHE421     -0.0003
    177  CZ        41.7370    4.4380   44.7530 C.ar  421  PHE421     -0.0000
@<TRIPOS>BOND
     1     1     2    1
     2     3     4    2
     3     3     2    1
     4   167   168    1
     5     2     5    1
     6     5     6    1
     7     9    10    1
     8   168   169    1
     9   168   171    1
    10   169   170    2
    11     7     6   ar
    12     6     8   ar
    13    13    10    1
    14    13    14    1
    15    10    11    1
    16   176   174   ar
    17   176   177   ar
    18   174   172   ar
    19    15    14   ar
    20    15    17   ar
    21    36    37    2
    22    36    35    1
    23   177   175   ar
    24   172   171    1
    25   172   173   ar
    26    14    16   ar
    27    93    95   ar
    28    93    91   ar
    29   175   173   ar
    30    35    34    1
    31    17    19   ar
    32    95    94   ar
    33    11    20   am
    34    11    12    2
    35    34    30   am
    36    32    33    1
    37    32    29    1
    38    20    21    1
    39    16    18   ar
    40    91    90   ar
    41    28    29    1
    42    19    18   ar
    43    30    29    1
    44    30    31    2
    45    94    92   ar
    46    21    22    1
    47    21    24    1
    48    90    92   ar
    49    90    89    1
    50    22    23    2
    51   112   113    1
    52    27    25    1
    53    24    25    1
    54    24    26    1
    55   115   114    2
    56   101   102    1
    57   114   113    1
    58    85    86    1
    59    86    89    1
    60    86    87    1
    61   113   116    1
    62   159   157    1
    63   102   103    1
    64   107   108    2
    65   107   106    1
    66   104   103    2
    67    88    87    2
    68   103   105   am
    69    87    96   am
    70   105   106    1
    71   158   156    1
    72    44    43    1
    73    44    38    1
    74   116   117    1
    75    43    42    1
    76   119   117    1
    77   106   109    1
    78   157   156    1
    79   117   118    1
    80    96    97    1
    81   156   153    1
    82   166   164    1
    83    98    99    2
    84    98    97    1
    85   109   110    1
    86   109   111    1
    87   122   123    2
    88   122   121    1
    89    42    39    1
    90    38    39    1
    91   120   121    1
    92    97   100    1
    93    41    40    2
    94   124   121    1
    95   124   125    1
    96    83    82    1
    97   164   165    1
    98   164   161    1
    99    39    40    1
   100   153   154    1
   101   153   152    1
   102   126   125    1
   103   126   127    1
   104    84    82    1
   105   154   160   am
   106   154   155    2
   107   160   161    1
   108    82    81    1
   109    65    63    1
   110   161   162    1
   111    81    78    1
   112    49    46    1
   113    63    64    1
   114    63    60    1
   115    46    45    1
   116    46    47    1
   117   162   163    2
   118    72    74   ar
   119    72    71   ar
   120    80    79    2
   121    74    76   ar
   122    78    79    1
   123    78    77    1
   124    48    47    2
   125    62    61    2
   126    61    60    1
   127    61    66   am
   128    47    50   am
   129    60    59    1
   130    66    67    1
   131    67    70    1
   132    67    68    1
   133    70    71    1
   134   151   149    1
   135    71    73   ar
   136    76    75   ar
   137   143   141    1
   138   141   140    1
   139    69    68    2
   140    50    51    1
   141   144   145    1
   142   145   146    1
   143   145   148    1
   144   149   148    1
   145   149   150    1
   146    73    75   ar
   147   142   140    1
   148   137   140    1
   149   137   136    1
   150   137   138    1
   151   147   146    2
   152   139   138    2
   153    51    52    1
   154    51    54    1
   155    52    53    2
   156   134   133    1
   157    54    55    1
   158   133   135    1
   159   133   132    1
   160    55    56    1
   161   129   132    1
   162   129   128    1
   163   129   130    1
   164   131   130    2
   165    56    57    1
   166    57    58    1
