@<TRIPOS>MOLECULE
tmp/2vesA00.pdb
 185 175 0 0 0
SMALL
GASTEIGER

@<TRIPOS>ATOM
      1  N         65.9820   34.2220   17.3580 N.3    18  LEU18      -0.1245
      2  CA        64.7860   34.0620   16.5450 C.3    18  LEU18       0.1561
      3  C         65.1200   34.0370   15.0520 C.2    18  LEU18       0.2260
      4  O         64.6210   33.1880   14.3220 O.2    18  LEU18      -0.2867
      5  CB        63.8040   35.1960   16.8110 C.3    18  LEU18       0.0270
      6  CG        62.6140   35.1880   15.8590 C.3    18  LEU18       0.0019
      7  CD1       61.6320   34.0770   16.2280 C.3    18  LEU18       0.0001
      8  CD2       61.9730   36.5180   15.8750 C.3    18  LEU18       0.0001
      9  N         59.6310   43.9440   12.3480 N.3    62  MET62      -0.1230
     10  CA        59.0930   42.9250   13.2540 C.3    62  MET62       0.1702
     11  C         59.3780   43.2150   14.7200 C.2    62  MET62       0.2593
     12  O         58.5440   42.9400   15.5680 O.2    62  MET62      -0.2718
     13  CB        59.6290   41.5460   12.8960 C.3    62  MET62       0.0401
     14  CG        59.0830   41.0110   11.5880 C.3    62  MET62       0.0596
     15  SD        59.2570   39.2250   11.4850 S.3    62  MET62      -0.1393
     16  CE        61.0270   39.0470   11.6090 C.3    62  MET62       0.0692
     17  N         60.5630   43.7390   15.0090 N.am   63  SER63      -0.1952
     18  CA        60.9440   44.1180   16.3660 C.3    63  SER63       0.1924
     19  C         61.5600   45.5070   16.3320 C.2    63  SER63       0.2314
     20  O         61.6390   46.1180   15.2760 O.2    63  SER63      -0.2863
     21  CB        61.9540   43.1120   16.9300 C.3    63  SER63       0.2116
     22  OG        63.1730   43.1710   16.2260 O.3    63  SER63      -0.2180
     23  N         65.2880   42.8400   18.3180 N.3    75  THR75      -0.1218
     24  CA        64.5720   42.1510   19.3960 C.3    75  THR75       0.1862
     25  C         65.0430   42.6110   20.7790 C.2    75  THR75       0.2287
     26  O         65.2200   41.8050   21.6910 O.2    75  THR75      -0.2866
     27  CB        64.6120   40.6000   19.2430 C.3    75  THR75       0.1770
     28  OG1       65.9350   40.1140   19.4490 O.3    75  THR75      -0.2211
     29  CG2       64.1540   40.2010   17.8570 C.3    75  THR75       0.0375
     30  N         63.2440   44.8100   22.6760 N.3    77  GLU77      -0.1231
     31  CA        62.1360   45.3720   23.4680 C.3    77  GLU77       0.1699
     32  C         61.6780   44.5140   24.6550 C.2    77  GLU77       0.2592
     33  O         61.2360   45.0550   25.6640 O.2    77  GLU77      -0.2718
     34  CB        60.9280   45.7500   22.5970 C.3    77  GLU77       0.0402
     35  CG        60.2980   44.6260   21.7990 C.3    77  GLU77       0.1161
     36  CD        60.9450   44.4230   20.4470 C.2    77  GLU77       0.3649
     37  OE1       62.0770   44.9040   20.2390 O.co2  77  GLU77      -0.2457
     38  OE2       60.3230   43.7760   19.5840 O.co2  77  GLU77      -0.2457
     39  N         61.7670   43.1930   24.5530 N.am   78  HIS78      -0.1976
     40  CA        61.3030   42.3470   25.6560 C.3    78  HIS78       0.1656
     41  C         62.2310   42.4670   26.8690 C.2    78  HIS78       0.2291
     42  O         61.7680   42.5700   28.0130 O.2    78  HIS78      -0.2864
     43  CB        61.1290   40.8890   25.2190 C.3    78  HIS78       0.0771
     44  CG        60.1110   40.7030   24.1380 C.ar   78  HIS78       0.0820
     45  ND1       59.9890   39.5300   23.4250 N.ar   78  HIS78      -0.2267
     46  CD2       59.2010   41.5590   23.6120 C.ar   78  HIS78       0.1154
     47  CE1       59.0350   39.6620   22.5220 C.ar   78  HIS78       0.1986
     48  NE2       58.5450   40.8860   22.6090 N.ar   78  HIS78      -0.2212
     49  N         65.3900   35.1900   21.9600 N.3   102  ILE102     -0.1245
     50  CA        63.9450   35.3770   22.0820 C.3   102  ILE102      0.1561
     51  C         63.3830   34.7140   23.3520 C.2   102  ILE102      0.2260
     52  O         62.3050   35.0890   23.8430 O.2   102  ILE102     -0.2867
     53  CB        63.2100   34.8710   20.8020 C.3   102  ILE102      0.0252
     54  CG1       61.7290   35.2630   20.8120 C.3   102  ILE102      0.0019
     55  CG2       63.3440   33.3500   20.6170 C.3   102  ILE102      0.0019
     56  CD1       61.4810   36.7500   20.8910 C.3   102  ILE102      0.0001
     57  N         54.7500   36.7830   22.8930 N.3   190  THR190     -0.1203
     58  CA        54.4290   37.3330   21.5810 C.3   190  THR190      0.1994
     59  C         53.5450   36.3290   20.8460 C.2   190  THR190      0.2618
     60  O         53.4190   35.1750   21.2690 O.2   190  THR190     -0.2717
     61  CB        55.6800   37.6380   20.7480 C.3   190  THR190      0.1784
     62  OG1       55.2990   38.3310   19.5550 O.3   190  THR190     -0.2211
     63  CG2       56.4440   36.3660   20.3790 C.3   190  THR190      0.0376
     64  N         52.9410   36.7800   19.7530 N.am  191  PHE191     -0.1961
     65  CA        51.9980   35.9590   19.0120 C.3   191  PHE191      0.1771
     66  C         52.0010   36.2690   17.5220 C.2   191  PHE191      0.2620
     67  O         52.3700   37.3590   17.1070 O.2   191  PHE191     -0.2715
     68  CB        50.5900   36.1500   19.5820 C.3   191  PHE191      0.0574
     69  CG        50.0260   37.5440   19.3960 C.ar  191  PHE191     -0.0200
     70  CD1       50.2470   38.5280   20.3490 C.ar  191  PHE191     -0.0042
     71  CD2       49.2400   37.8470   18.2890 C.ar  191  PHE191     -0.0042
     72  CE1       49.7100   39.7990   20.2030 C.ar  191  PHE191     -0.0003
     73  CE2       48.6990   39.1150   18.1250 C.ar  191  PHE191     -0.0003
     74  CZ        48.9320   40.0960   19.0800 C.ar  191  PHE191     -0.0000
     75  N         51.5750   35.2950   16.7260 N.am  192  GLY192     -0.1940
     76  CA        51.3670   35.5160   15.2980 C.3   192  GLY192      0.2014
     77  C         50.7590   34.3090   14.6230 C.2   192  GLY192      0.2638
     78  O         50.4740   33.2990   15.2770 O.2   192  GLY192     -0.2714
     79  N         50.5910   34.4040   13.3090 N.am  193  PHE193     -0.1973
     80  CA        49.9660   33.3420   12.5320 C.3   193  PHE193      0.1639
     81  C         50.9950   32.3070   12.0880 C.2   193  PHE193      0.2290
     82  O         52.1230   32.6490   11.7320 O.2   193  PHE193     -0.2864
     83  CB        49.2720   33.9090   11.2890 C.3   193  PHE193      0.0560
     84  CG        47.9190   34.5050   11.5590 C.ar  193  PHE193     -0.0200
     85  CD1       46.7680   33.7590   11.3450 C.ar  193  PHE193     -0.0042
     86  CD2       47.7940   35.8060   12.0190 C.ar  193  PHE193     -0.0042
     87  CE1       45.5150   34.2970   11.5820 C.ar  193  PHE193     -0.0003
     88  CE2       46.5340   36.3540   12.2680 C.ar  193  PHE193     -0.0003
     89  CZ        45.3950   35.5930   12.0430 C.ar  193  PHE193     -0.0000
     90  N         52.4300   33.0280    8.7200 N.3   196  ASP196     -0.1225
     91  CA        53.5300   33.9930    8.7370 C.3   196  ASP196      0.1805
     92  C         54.8510   33.3280    9.1390 C.2   196  ASP196      0.2597
     93  O         55.8880   33.6430    8.5670 O.2   196  ASP196     -0.2718
     94  CB        53.2100   35.1880    9.6500 C.3   196  ASP196      0.1424
     95  CG        52.0550   36.0350    9.1360 C.2   196  ASP196      0.3668
     96  OD1       51.7210   35.9440    7.9410 O.co2 196  ASP196     -0.2456
     97  OD2       51.4830   36.8170    9.9300 O.co2 196  ASP196     -0.2456
     98  N         54.8180   32.3960   10.0900 N.am  197  ILE197     -0.1980
     99  CA        56.0190   31.6320   10.4510 C.3   197  ILE197      0.1595
    100  C         56.5380   30.8540    9.2430 C.2   197  ILE197      0.2287
    101  O         57.7370   30.8660    8.9600 O.2   197  ILE197     -0.2864
    102  CB        55.7740   30.6280   11.6160 C.3   197  ILE197      0.0276
    103  CG1       55.3270   31.3770   12.8730 C.3   197  ILE197      0.0022
    104  CG2       57.0500   29.7980   11.8940 C.3   197  ILE197      0.0022
    105  CD1       55.0790   30.4930   14.0720 C.3   197  ILE197      0.0001
    106  N         58.0950   33.3320    6.8360 N.3   200  LEU200     -0.1245
    107  CA        59.3580   33.8930    7.3370 C.3   200  LEU200      0.1561
    108  C         60.4670   32.8590    7.2520 C.2   200  LEU200      0.2260
    109  O         61.5680   33.1550    6.7760 O.2   200  LEU200     -0.2867
    110  CB        59.2050   34.4090    8.7660 C.3   200  LEU200      0.0270
    111  CG        58.3380   35.6700    8.9050 C.3   200  LEU200      0.0019
    112  CD1       58.0840   35.9590   10.3690 C.3   200  LEU200      0.0001
    113  CD2       58.9580   36.8650    8.2050 C.3   200  LEU200      0.0001
    114  N         63.2620   34.2320   11.0000 N.3   206  ALA206     -0.1245
    115  CA        62.5760   33.4930   12.0530 C.3   206  ALA206      0.1562
    116  C         62.9580   32.0070   12.1030 C.2   206  ALA206      0.2260
    117  O         62.1110   31.1630   12.3850 O.2   206  ALA206     -0.2867
    118  CB        61.0590   33.6550   11.9010 C.3   206  ALA206      0.0290
    119  N         61.9930   30.5450   15.3460 N.3   209  GLY209     -0.1210
    120  CA        60.6140   30.8230   15.7620 C.3   209  GLY209      0.1956
    121  C         59.7010   29.6100   15.7300 C.2   209  GLY209      0.2612
    122  O         59.6330   28.9010   14.7200 O.2   209  GLY209     -0.2717
    123  N         58.9760   29.3820   16.8230 N.am  210  SER210     -0.1952
    124  CA        58.0610   28.2410   16.9230 C.3   210  SER210      0.1924
    125  C         57.0630   28.4240   18.0650 C.2   210  SER210      0.2314
    126  O         57.0800   29.4440   18.7520 O.2   210  SER210     -0.2863
    127  CB        58.8580   26.9550   17.1600 C.3   210  SER210      0.2116
    128  OG        59.2520   26.8500   18.5170 O.3   210  SER210     -0.2180
    129  N         58.2480   29.6070   21.5230 N.3   213  ASN213     -0.1225
    130  CA        58.5020   31.0160   21.8630 C.3   213  ASN213      0.1785
    131  C         57.4560   31.9950   21.3410 C.2   213  ASN213      0.2597
    132  O         57.7300   33.1770   21.1970 O.2   213  ASN213     -0.2718
    133  CB        59.9160   31.4440   21.4340 C.3   213  ASN213      0.1169
    134  CG        60.2800   30.9860   20.0330 C.2   213  ASN213      0.2627
    135  OD1       59.4910   31.1140   19.0960 O.2   213  ASN213     -0.2716
    136  ND2       61.5020   30.4620   19.8830 N.am  213  ASN213     -0.0877
    137  N         56.2500   31.4960   21.0920 N.am  214  ALA214     -0.1979
    138  CA        55.1520   32.3380   20.6600 C.3   214  ALA214      0.1597
    139  C         53.8240   31.6230   20.8380 C.2   214  ALA214      0.2287
    140  O         53.7540   30.3880   20.7840 O.2   214  ALA214     -0.2864
    141  CB        55.3410   32.7320   19.1990 C.3   214  ALA214      0.0319
    142  N         50.8840   30.7530   18.7820 N.3   216  VAL216     -0.1245
    143  CA        50.7450   30.6110   17.3380 C.3   216  VAL216      0.1561
    144  C         49.2940   30.3050   17.0310 C.2   216  VAL216      0.2260
    145  O         48.7030   29.3980   17.6270 O.2   216  VAL216     -0.2867
    146  CB        51.6520   29.4930   16.7890 C.3   216  VAL216      0.0252
    147  CG1       51.6300   29.4820   15.2630 C.3   216  VAL216      0.0019
    148  CG2       53.0750   29.6670   17.3080 C.3   216  VAL216      0.0019
    149  N         50.7510   41.3500   25.8810 N.3   237  HIS237     -0.1226
    150  CA        52.0440   41.3680   25.2000 C.3   237  HIS237      0.1752
    151  C         52.2670   42.6900   24.4760 C.2   237  HIS237      0.2595
    152  O         53.3850   43.1790   24.4110 O.2   237  HIS237     -0.2718
    153  CB        52.2320   40.2370   24.1930 C.3   237  HIS237      0.0759
    154  CG        53.6210   40.2130   23.6430 C.ar  237  HIS237      0.0818
    155  ND1       54.6680   39.6360   24.3230 N.ar  237  HIS237     -0.2268
    156  CD2       54.1630   40.8190   22.5620 C.ar  237  HIS237      0.1154
    157  CE1       55.7850   39.8190   23.6430 C.ar  237  HIS237      0.1986
    158  NE2       55.5100   40.5510   22.5790 N.ar  237  HIS237     -0.2212
    159  N         51.2040   43.2730   23.9370 N.am  238  LYS238     -0.1980
    160  CA        51.3270   44.5830   23.3030 C.3   238  LYS238      0.1596
    161  C         51.7290   45.6530   24.3170 C.2   238  LYS238      0.2287
    162  O         52.4980   46.5530   23.9990 O.2   238  LYS238     -0.2864
    163  CB        50.0250   44.9630   22.6060 C.3   238  LYS238      0.0298
    164  CG        49.7090   44.1020   21.4030 C.3   238  LYS238      0.0038
    165  CD        50.8620   44.1310   20.4290 C.3   238  LYS238      0.0206
    166  CE        50.4250   43.9030   19.0320 C.3   238  LYS238      0.1093
    167  NZ        51.5670   44.0420   18.0960 N.3   238  LYS238     -0.1314
    168  N         55.3780   45.1250   24.9700 N.3   241  ASP241     -0.1239
    169  CA        56.0890   45.7710   23.8660 C.3   241  ASP241      0.1674
    170  C         56.1860   47.2810   24.0450 C.2   241  ASP241      0.2266
    171  O         57.2600   47.8540   23.8800 O.2   241  ASP241     -0.2867
    172  CB        55.4180   45.4510   22.5260 C.3   241  ASP241      0.1410
    173  CG        55.7910   44.0810   22.0010 C.2   241  ASP241      0.3668
    174  OD1       56.7330   43.4650   22.5500 O.co2 241  ASP241     -0.2456
    175  OD2       55.1520   43.6270   21.0260 O.co2 241  ASP241     -0.2456
    176  N         56.0340   48.8240   16.7060 N.3   264  HIS264     -0.1241
    177  CA        57.3360   49.3660   17.0740 C.3   264  HIS264      0.1621
    178  C         57.6680   50.6430   16.3170 C.2   264  HIS264      0.2264
    179  O         58.2820   51.5450   16.8820 O.2   264  HIS264     -0.2867
    180  CB        58.4280   48.3250   16.8460 C.3   264  HIS264      0.0745
    181  CG        58.1550   47.0260   17.5270 C.ar  264  HIS264      0.0817
    182  ND1       57.9480   46.9310   18.8860 N.ar  264  HIS264     -0.2268
    183  CD2       58.0360   45.7710   17.0380 C.ar  264  HIS264      0.1154
    184  CE1       57.7190   45.6730   19.2060 C.ar  264  HIS264      0.1986
    185  NE2       57.7720   44.9470   18.1040 N.ar  264  HIS264     -0.2212
@<TRIPOS>BOND
     1   109   108    2
     2   106   107    1
     3   108   107    1
     4   107   110    1
     5    96    95   ar
     6   113   111    1
     7    93    92    2
     8    90    91    1
     9    91    92    1
    10    91    94    1
    11   110   111    1
    12   111   112    1
    13   101   100    2
    14    95    94    1
    15    95    97   ar
    16    92    98   am
    17   100    99    1
    18    98    99    1
    19    99   102    1
    20   114   115    1
    21    83    84    1
    22    83    80    1
    23    85    84   ar
    24    85    87   ar
    25    15    14    1
    26    15    16    1
    27    84    86   ar
    28    87    89   ar
    29    14    13    1
    30   102   104    1
    31   102   103    1
    32    82    81    2
    33   118   115    1
    34    86    88   ar
    35    89    88   ar
    36   115   116    1
    37    81    80    1
    38   116   117    2
    39     9    10    1
    40    80    79    1
    41   103   105    1
    42    13    10    1
    43    10    11    1
    44    79    77   am
    45     4     3    2
    46    77    78    2
    47    77    76    1
    48    11    17   am
    49    11    12    2
    50   122   121    2
    51    17    18    1
    52     3     2    1
    53   147   146    1
    54    20    19    2
    55    76    75    1
    56   119   120    1
    57   121   120    1
    58   121   123   am
    59     6     8    1
    60     6     7    1
    61     6     5    1
    62    22    21    1
    63   178   179    2
    64   178   177    1
    65    19    18    1
    66    18    21    1
    67     2     5    1
    68     2     1    1
    69   176   177    1
    70    75    66   am
    71   146   148    1
    72   146   143    1
    73   123   124    1
    74   180   177    1
    75   180   181    1
    76   124   127    1
    77   124   125    1
    78   144   143    1
    79   144   145    2
    80   183   181   ar
    81   183   185   ar
    82    67    66    2
    83   127   128    1
    84   143   142    1
    85    66    65    1
    86   181   182   ar
    87    29    27    1
    88   125   126    2
    89   167   166    1
    90   185   184   ar
    91    73    71   ar
    92    73    74   ar
    93    71    69   ar
    94    23    24    1
    95   182   184   ar
    96    65    68    1
    97    65    64    1
    98   166   165    1
    99    74    72   ar
   100   135   134    2
   101   141   138    1
   102    27    24    1
   103    27    28    1
   104    69    68    1
   105    69    70   ar
   106    24    25    1
   107    62    61    1
   108    38    36   ar
   109    64    59   am
   110   136   134   am
   111   134   133    1
   112    72    70   ar
   113    37    36   ar
   114    63    61    1
   115   165   164    1
   116    36    35    1
   117    55    53    1
   118   138   139    1
   119   138   137    1
   120    61    58    1
   121    25    26    2
   122   140   139    2
   123    53    54    1
   124    53    50    1
   125    54    56    1
   126    59    60    2
   127    59    58    1
   128   175   173   ar
   129   137   131   am
   130   132   131    2
   131   131   130    1
   132   164   163    1
   133   133   130    1
   134   129   130    1
   135    58    57    1
   136    35    34    1
   137    49    50    1
   138   173   172    1
   139   173   174   ar
   140    50    51    1
   141    47    48   ar
   142    47    45   ar
   143   172   169    1
   144   156   158   ar
   145   156   154   ar
   146   158   157   ar
   147    34    31    1
   148   163   160    1
   149    48    46   ar
   150    30    31    1
   151   160   159    1
   152   160   161    1
   153    51    52    2
   154    45    44   ar
   155    31    32    1
   156    46    44   ar
   157   157   155   ar
   158   154   153    1
   159   154   155   ar
   160   169   170    1
   161   169   168    1
   162   171   170    2
   163   159   151   am
   164   162   161    2
   165    44    43    1
   166   153   150    1
   167   152   151    2
   168   151   150    1
   169    39    32   am
   170    39    40    1
   171    32    33    2
   172   150   149    1
   173    43    40    1
   174    40    41    1
   175    41    42    2
