@<TRIPOS>MOLECULE
tmp/2veuA00.pdb
 113 107 0 0 0
SMALL
GASTEIGER

@<TRIPOS>ATOM
      1  N          9.8420   13.9680   79.9800 N.3    44  TYR44      -0.1241
      2  CA        10.1890   15.0780   79.0830 C.3    44  TYR44       0.1605
      3  C          9.7220   14.8630   77.6360 C.2    44  TYR44       0.2264
      4  O         10.0580   13.8620   76.9930 O.2    44  TYR44      -0.2867
      5  CB        11.7050   15.3180   79.0890 C.3    44  TYR44       0.0534
      6  CG        12.2730   15.6460   80.4410 C.ar   44  TYR44      -0.0201
      7  CD1       11.9690   16.8520   81.0730 C.ar   44  TYR44      -0.0009
      8  CD2       13.0700   14.7320   81.1200 C.ar   44  TYR44      -0.0009
      9  CE1       12.4400   17.1360   82.3590 C.ar   44  TYR44       0.0417
     10  CE2       13.5420   15.0020   82.3980 C.ar   44  TYR44       0.0417
     11  CZ        13.2190   16.2070   83.0150 C.ar   44  TYR44       0.1957
     12  OH        13.6400   16.4550   84.3110 O.3    44  TYR44      -0.2866
     13  N         10.7150   16.1480   74.9540 N.3    46  ASP46      -0.1225
     14  CA        11.8050   16.0980   73.9830 C.3    46  ASP46       0.1805
     15  C         12.8750   15.0210   74.2130 C.2    46  ASP46       0.2597
     16  O         13.9300   15.0470   73.5830 O.2    46  ASP46      -0.2718
     17  CB        12.4500   17.4910   73.8420 C.3    46  ASP46       0.1424
     18  CG        12.9450   18.0360   75.1530 C.2    46  ASP46       0.3668
     19  OD1       12.4390   17.5840   76.2000 O.co2  46  ASP46      -0.2456
     20  OD2       13.8320   18.9270   75.1450 O.co2  46  ASP46      -0.2456
     21  N         12.6090   14.0750   75.1110 N.am   47  VAL47      -0.1980
     22  CA        13.5420   12.9750   75.3370 C.3    47  VAL47       0.1595
     23  C         12.7750   11.6600   75.2900 C.2    47  VAL47       0.2287
     24  O         12.1790   11.2490   76.2860 O.2    47  VAL47      -0.2864
     25  CB        14.2660   13.0680   76.6980 C.3    47  VAL47       0.0276
     26  CG1       15.2540   11.8970   76.8330 C.3    47  VAL47       0.0022
     27  CG2       15.0150   14.3980   76.8150 C.3    47  VAL47       0.0022
     28  N         13.0430   16.0070   89.9770 N.3   118  LYS118     -0.1245
     29  CA        13.7470   15.4360   88.8400 C.3   118  LYS118      0.1561
     30  C         13.5380   13.9230   88.7390 C.2   118  LYS118      0.2260
     31  O         13.9320   13.3060   87.7540 O.2   118  LYS118     -0.2867
     32  CB        15.2450   15.6950   88.9990 C.3   118  LYS118      0.0271
     33  CG        15.6340   17.1410   89.1500 C.3   118  LYS118      0.0035
     34  CD        15.3860   17.9110   87.8680 C.3   118  LYS118      0.0206
     35  CE        15.8180   19.3610   88.0100 C.3   118  LYS118      0.1093
     36  NZ        17.2960   19.4800   88.0860 N.3   118  LYS118     -0.1314
     37  N         22.9140   18.7600   87.6350 N.3   179  ASP179     -0.1225
     38  CA        22.2320   18.7470   86.3580 C.3   179  ASP179      0.1805
     39  C         22.9860   19.6280   85.3730 C.2   179  ASP179      0.2597
     40  O         23.4030   20.7330   85.7180 O.2   179  ASP179     -0.2718
     41  CB        20.8100   19.2550   86.5510 C.3   179  ASP179      0.1424
     42  CG        19.8490   18.6490   85.5770 C.2   179  ASP179      0.3668
     43  OD1       20.2840   17.7880   84.8000 O.co2 179  ASP179     -0.2456
     44  OD2       18.6600   19.0220   85.5910 O.co2 179  ASP179     -0.2456
     45  N         23.1570   19.1240   84.1520 N.am  180  PHE180     -0.1976
     46  CA        23.8760   19.8190   83.0920 C.3   180  PHE180      0.1639
     47  C         25.3070   20.1710   83.5290 C.2   180  PHE180      0.2290
     48  O         25.9290   21.0860   82.9890 O.2   180  PHE180     -0.2864
     49  CB        23.0920   21.0690   82.6700 C.3   180  PHE180      0.0560
     50  CG        21.8070   20.7570   81.9430 C.ar  180  PHE180     -0.0200
     51  CD1       21.8230   20.3940   80.6020 C.ar  180  PHE180     -0.0042
     52  CD2       20.5890   20.7850   82.6040 C.ar  180  PHE180     -0.0042
     53  CE1       20.6490   20.0660   79.9350 C.ar  180  PHE180     -0.0003
     54  CE2       19.4110   20.4580   81.9530 C.ar  180  PHE180     -0.0003
     55  CZ        19.4380   20.0980   80.6150 C.ar  180  PHE180     -0.0000
     56  N         19.5120    9.4030   85.2510 N.3   213  CYS213     -0.1221
     57  CA        19.6480   10.7100   85.8760 C.3   213  CYS213      0.1808
     58  C         18.1970   11.2100   85.8420 C.2   213  CYS213      0.2602
     59  O         17.3000   10.4510   86.1860 O.2   213  CYS213     -0.2717
     60  CB        20.6090   11.6250   85.0840 C.3   213  CYS213      0.0970
     61  SG        20.5970   11.5050   83.2610 S.3   213  CYS213     -0.0800
     62  N         17.9380   12.4470   85.4380 N.am  214  SER214     -0.1938
     63  CA        16.5530   12.8910   85.3900 C.3   214  SER214      0.2055
     64  C         15.9270   12.5370   84.0310 C.2   214  SER214      0.2642
     65  O         14.8720   11.8840   83.9750 O.2   214  SER214     -0.2714
     66  CB        16.4460   14.3980   85.6550 C.3   214  SER214      0.2130
     67  OG        15.0780   14.8080   85.7000 O.3   214  SER214     -0.2179
     68  N         16.5730   12.9630   82.9490 N.am  215  ALA215     -0.1977
     69  CA        16.1020   12.6830   81.5950 C.3   215  ALA215      0.1597
     70  C         16.7210   11.4000   81.0230 C.2   215  ALA215      0.2287
     71  O         16.2210   10.8510   80.0490 O.2   215  ALA215     -0.2864
     72  CB        16.4130   13.8560   80.6860 C.3   215  ALA215      0.0319
     73  N         19.9970   10.9620   79.7370 N.3   217  ILE217     -0.1231
     74  CA        20.8440   11.0920   78.5650 C.3   217  ILE217      0.1692
     75  C         22.1140   11.8830   78.8570 C.2   217  ILE217      0.2593
     76  O         23.1660   11.5820   78.3030 O.2   217  ILE217     -0.2718
     77  CB        20.0740   11.7510   77.3610 C.3   217  ILE217      0.0266
     78  CG1       19.5340   13.1220   77.7600 C.3   217  ILE217      0.0019
     79  CG2       18.8920   10.8610   76.9140 C.3   217  ILE217      0.0020
     80  CD1       18.6590   13.7260   76.7270 C.3   217  ILE217      0.0001
     81  N         22.0270   12.8770   79.7400 N.am  218  GLY218     -0.1942
     82  CA        23.1910   13.6920   80.0450 C.3   218  GLY218      0.2014
     83  C         24.2000   13.0230   80.9460 C.2   218  GLY218      0.2638
     84  O         25.2510   12.5840   80.4900 O.2   218  GLY218     -0.2714
     85  N         23.8950   12.9730   82.2370 N.am  219  ARG219     -0.1977
     86  CA        24.7760   12.3370   83.1990 C.3   219  ARG219      0.1597
     87  C         24.8790   10.8420   82.9060 C.2   219  ARG219      0.2287
     88  O         25.9710   10.2700   82.9550 O.2   219  ARG219     -0.2864
     89  CB        24.2680   12.6110   84.6070 C.3   219  ARG219      0.0334
     90  CG        24.4790   14.0790   84.9910 C.3   219  ARG219      0.0492
     91  CD        23.7620   14.5090   86.2610 C.3   219  ARG219      0.2205
     92  NE        22.3460   14.7840   86.0090 N.pl3 219  ARG219     -0.0865
     93  CZ        21.4900   15.2340   86.9230 C.cat 219  ARG219      0.5346
     94  NH1       21.8960   15.4690   88.1710 N.pl3 219  ARG219      0.1354
     95  NH2       20.2200   15.4320   86.5930 N.pl3 219  ARG219      0.1354
     96  N         24.9590   15.9050   77.2510 N.3   260  GLN260     -0.1245
     97  CA        24.2230   17.1540   77.0810 C.3   260  GLN260      0.1566
     98  C         24.9670   18.4880   77.0460 C.2   260  GLN260      0.2260
     99  O         24.3590   19.5110   76.7610 O.2   260  GLN260     -0.2867
    100  CB        23.1380   17.2160   78.1460 C.3   260  GLN260      0.0367
    101  CG        22.0020   16.2580   77.8830 C.3   260  GLN260      0.0905
    102  CD        21.1060   16.7420   76.7590 C.2   260  GLN260      0.2608
    103  OE1       20.3930   17.7410   76.9090 O.2   260  GLN260     -0.2717
    104  NE2       21.1400   16.0450   75.6250 N.am  260  GLN260     -0.0878
    105  N         30.5680   18.3200   79.4020 N.3   264  GLN264     -0.1245
    106  CA        30.4220   16.9260   79.8130 C.3   264  GLN264      0.1566
    107  C         31.3350   16.0360   78.9500 C.2   264  GLN264      0.2260
    108  O         31.9950   15.1330   79.4620 O.2   264  GLN264     -0.2867
    109  CB        28.9580   16.4750   79.7090 C.3   264  GLN264      0.0367
    110  CG        28.0610   17.1040   80.7700 C.3   264  GLN264      0.0905
    111  CD        26.6320   16.5420   80.8160 C.2   264  GLN264      0.2608
    112  OE1       26.0130   16.2870   79.7790 O.2   264  GLN264     -0.2717
    113  NE2       26.0970   16.3760   82.0340 N.am  264  GLN264     -0.0878
@<TRIPOS>BOND
     1    16    15    2
     2    17    14    1
     3    17    18    1
     4    14    15    1
     5    14    13    1
     6    15    21   am
     7    21    22    1
     8    20    18   ar
     9    18    19   ar
    10    23    22    1
    11    23    24    2
    12    22    25    1
    13   104   102   am
    14    25    27    1
    15    25    26    1
    16    80    78    1
    17   102   103    2
    18   102   101    1
    19    99    98    2
    20    79    77    1
    21     4     3    2
    22    98    97    1
    23    97    96    1
    24    97   100    1
    25    77    78    1
    26    77    74    1
    27     3     2    1
    28   101   100    1
    29    76    75    2
    30    74    75    1
    31    74    73    1
    32    75    81   am
    33   107   108    2
    34   107   106    1
    35     2     5    1
    36     2     1    1
    37     5     6    1
    38   105   106    1
    39   109   106    1
    40   109   110    1
    41    81    82    1
    42   112   111    2
    43    53    51   ar
    44    53    55   ar
    45    82    83    1
    46    71    70    2
    47     6     7   ar
    48     6     8   ar
    49    84    83    2
    50    51    50   ar
    51    55    54   ar
    52    72    69    1
    53   110   111    1
    54   111   113   am
    55    83    85   am
    56    70    69    1
    57     7     9   ar
    58     8    10   ar
    59    69    68    1
    60    50    52   ar
    61    50    49    1
    62    54    52   ar
    63    85    86    1
    64     9    11   ar
    65    10    11   ar
    66    49    46    1
    67    87    88    2
    68    87    86    1
    69    68    64   am
    70    48    47    2
    71    11    12    1
    72    46    47    1
    73    46    45    1
    74    86    89    1
    75    61    60    1
    76    65    64    2
    77    64    63    1
    78    45    39   am
    79    89    90    1
    80    43    42   ar
    81    90    91    1
    82    60    57    1
    83    56    57    1
    84    39    40    2
    85    39    38    1
    86    63    62    1
    87    63    66    1
    88    62    58   am
    89    42    44   ar
    90    42    41    1
    91    66    67    1
    92    58    57    1
    93    58    59    2
    94    92    91    1
    95    92    93    2
    96    38    41    1
    97    38    37    1
    98    95    93    1
    99    93    94    1
   100    31    30    2
   101    34    35    1
   102    34    33    1
   103    35    36    1
   104    30    29    1
   105    29    32    1
   106    29    28    1
   107    32    33    1
