@<TRIPOS>MOLECULE
tmp/2vevA00.pdb
 133 128 0 0 0
SMALL
GASTEIGER

@<TRIPOS>ATOM
      1  N         25.6950   16.7870   67.7590 N.3    23  ARG23      -0.1245
      2  CA        24.2320   16.8770   67.7850 C.3    23  ARG23       0.1563
      3  C         23.6660   16.8280   66.3590 C.2    23  ARG23       0.2260
      4  O         22.6300   16.2030   66.0910 O.2    23  ARG23      -0.2867
      5  CB        23.7840   18.1800   68.4480 C.3    23  ARG23       0.0307
      6  CG        24.1500   18.3130   69.9240 C.3    23  ARG23       0.0489
      7  CD        23.4500   19.5190   70.5130 C.3    23  ARG23       0.2205
      8  NE        22.0140   19.2950   70.5090 N.pl3  23  ARG23      -0.0865
      9  CZ        21.1140   20.1520   70.0290 C.cat  23  ARG23       0.5346
     10  NH1       21.4920   21.3160   69.5090 N.pl3  23  ARG23       0.1354
     11  NH2       19.8270   19.8310   70.0500 N.pl3  23  ARG23       0.1354
     12  N          9.5280   13.7890   80.2410 N.3    45  TYR45      -0.1227
     13  CA         9.7450   14.9530   79.3750 C.3    45  TYR45       0.1736
     14  C          9.2750   14.6530   77.9440 C.2    45  TYR45       0.2595
     15  O          9.6290   13.6180   77.3680 O.2    45  TYR45      -0.2718
     16  CB        11.2370   15.3220   79.3620 C.3    45  TYR45       0.0548
     17  CG        11.8160   15.6390   80.7330 C.ar   45  TYR45      -0.0200
     18  CD1       11.4820   16.8230   81.3990 C.ar   45  TYR45      -0.0009
     19  CD2       12.6710   14.7500   81.3690 C.ar   45  TYR45      -0.0009
     20  CE1       11.9950   17.1080   82.6730 C.ar   45  TYR45       0.0417
     21  CE2       13.1870   15.0180   82.6370 C.ar   45  TYR45       0.0417
     22  CZ        12.8450   16.2000   83.2860 C.ar   45  TYR45       0.1957
     23  OH        13.3390   16.4700   84.5560 O.3    45  TYR45      -0.2866
     24  N          8.5170   15.5800   77.3530 N.am   46  ARG46      -0.1966
     25  CA         7.9900   15.3660   76.0040 C.3    46  ARG46       0.1729
     26  C          9.0160   15.2750   74.8830 C.2    46  ARG46       0.2616
     27  O          8.7250   14.7390   73.8080 O.2    46  ARG46      -0.2715
     28  CB         6.9680   16.4540   75.6440 C.3    46  ARG46       0.0348
     29  CG         7.5390   17.8340   75.4700 C.3    46  ARG46       0.0492
     30  CD         6.4200   18.7980   75.0450 C.3    46  ARG46       0.2205
     31  NE         6.9240   20.1420   74.7560 N.pl3  46  ARG46      -0.0865
     32  CZ         7.1790   21.0610   75.6770 C.cat  46  ARG46       0.5346
     33  NH1        6.9720   20.7930   76.9580 N.pl3  46  ARG46       0.1354
     34  NH2        7.6520   22.2460   75.3120 N.pl3  46  ARG46       0.1354
     35  N         10.2170   15.7750   75.1290 N.am   47  ASP47      -0.1957
     36  CA        11.2570   15.7590   74.1100 C.3    47  ASP47       0.1840
     37  C         12.3760   14.7240   74.3630 C.2    47  ASP47       0.2621
     38  O         13.4290   14.7570   73.7250 O.2    47  ASP47      -0.2715
     39  CB        11.8390   17.1780   73.9740 C.3    47  ASP47       0.1450
     40  CG        12.4310   17.6790   75.2640 C.2    47  ASP47       0.3671
     41  OD1       11.9560   17.2730   76.3460 O.co2  47  ASP47      -0.2456
     42  OD2       13.3670   18.4830   75.2140 O.co2  47  ASP47      -0.2456
     43  N         12.1560   13.8150   75.3020 N.am   48  VAL48      -0.1977
     44  CA        13.1540   12.7740   75.5620 C.3    48  VAL48       0.1596
     45  C         12.4110   11.4680   75.5240 C.2    48  VAL48       0.2287
     46  O         11.6780   11.1240   76.4480 O.2    48  VAL48      -0.2864
     47  CB        13.8500   12.9380   76.9120 C.3    48  VAL48       0.0276
     48  CG1       14.9060   11.8150   77.0980 C.3    48  VAL48       0.0022
     49  CG2       14.5230   14.3000   76.9640 C.3    48  VAL48       0.0022
     50  N         22.4630   19.0530   87.7880 N.3   180  ASP180     -0.1225
     51  CA        21.7880   18.8970   86.4990 C.3   180  ASP180      0.1805
     52  C         22.4600   19.7930   85.4460 C.2   180  ASP180      0.2597
     53  O         22.7940   20.9510   85.7300 O.2   180  ASP180     -0.2718
     54  CB        20.3020   19.2590   86.6380 C.3   180  ASP180      0.1424
     55  CG        19.4450   18.5680   85.5930 C.2   180  ASP180      0.3668
     56  OD1       20.0140   17.7560   84.8500 O.co2 180  ASP180     -0.2456
     57  OD2       18.2280   18.8260   85.5130 O.co2 180  ASP180     -0.2456
     58  N         22.6570   19.2610   84.2380 N.am  181  PHE181     -0.1976
     59  CA        23.3170   19.9870   83.1450 C.3   181  PHE181      0.1639
     60  C         24.7330   20.4070   83.5270 C.2   181  PHE181      0.2290
     61  O         25.3120   21.2800   82.9010 O.2   181  PHE181     -0.2864
     62  CB        22.5170   21.2300   82.7340 C.3   181  PHE181      0.0560
     63  CG        21.2570   20.9210   81.9880 C.ar  181  PHE181     -0.0200
     64  CD1       21.3040   20.5380   80.6570 C.ar  181  PHE181     -0.0042
     65  CD2       20.0280   20.9230   82.6430 C.ar  181  PHE181     -0.0042
     66  CE1       20.1430   20.1530   79.9900 C.ar  181  PHE181     -0.0003
     67  CE2       18.8700   20.5430   81.9900 C.ar  181  PHE181     -0.0003
     68  CZ        18.9270   20.1580   80.6620 C.ar  181  PHE181     -0.0000
     69  N         19.2490    9.3740   85.4130 N.3   214  CYS214     -0.1221
     70  CA        19.4440   10.6890   86.0270 C.3   214  CYS214      0.1808
     71  C         18.0090   11.2020   85.9550 C.2   214  CYS214      0.2602
     72  O         17.1180   10.4280   86.2800 O.2   214  CYS214     -0.2717
     73  CB        20.4630   11.5470   85.2400 C.3   214  CYS214      0.0970
     74  SG        20.4230   11.4860   83.4410 S.3   214  CYS214     -0.0800
     75  N         17.7330   12.4510   85.5750 N.am  215  SER215     -0.1938
     76  CA        16.3290   12.8660   85.4830 C.3   215  SER215      0.2055
     77  C         15.7120   12.4830   84.1260 C.2   215  SER215      0.2642
     78  O         14.6590   11.8620   84.0980 O.2   215  SER215     -0.2714
     79  CB        16.1540   14.3800   85.7160 C.3   215  SER215      0.2130
     80  OG        14.7680   14.7090   85.8490 O.3   215  SER215     -0.2179
     81  N         16.3610   12.8460   83.0210 N.am  216  ALA216     -0.1977
     82  CA        15.8830   12.4940   81.6760 C.3   216  ALA216      0.1597
     83  C         16.5470   11.1910   81.1770 C.2   216  ALA216      0.2287
     84  O         16.1020   10.5870   80.2130 O.2   216  ALA216     -0.2864
     85  CB        16.2120   13.5970   80.7050 C.3   216  ALA216      0.0319
     86  N         19.6850   11.0470   79.9550 N.3   218  ILE218     -0.1231
     87  CA        20.5290   11.3080   78.7980 C.3   218  ILE218      0.1692
     88  C         21.7740   12.1370   79.0490 C.2   218  ILE218      0.2593
     89  O         22.8240   11.8600   78.4610 O.2   218  ILE218     -0.2718
     90  CB        19.7530   11.9830   77.6280 C.3   218  ILE218      0.0266
     91  CG1       19.1770   13.3300   78.0690 C.3   218  ILE218      0.0019
     92  CG2       18.6170   11.0510   77.1330 C.3   218  ILE218      0.0020
     93  CD1       18.3070   13.9930   77.0240 C.3   218  ILE218      0.0001
     94  N         21.6740   13.1450   79.9130 N.am  219  GLY219     -0.1942
     95  CA        22.8240   13.9990   80.1500 C.3   219  GLY219      0.2014
     96  C         23.8740   13.3730   81.0420 C.2   219  GLY219      0.2638
     97  O         24.9440   12.9810   80.5880 O.2   219  GLY219     -0.2714
     98  N         23.5680   13.3070   82.3290 N.am  220  ARG220     -0.1977
     99  CA        24.4780   12.7310   83.2940 C.3   220  ARG220      0.1597
    100  C         24.6620   11.2430   82.9910 C.2   220  ARG220      0.2287
    101  O         25.7750   10.7270   83.0140 O.2   220  ARG220     -0.2864
    102  CB        23.9190   12.9830   84.7030 C.3   220  ARG220      0.0334
    103  CG        24.0800   14.4560   85.1200 C.3   220  ARG220      0.0492
    104  CD        23.3300   14.8140   86.4190 C.3   220  ARG220      0.2205
    105  NE        21.8830   14.9940   86.2170 N.pl3 220  ARG220     -0.0865
    106  CZ        21.0440   15.3500   87.1920 C.cat 220  ARG220      0.5346
    107  NH1       21.5170   15.5580   88.4200 N.pl3 220  ARG220      0.1354
    108  NH2       19.7430   15.5060   86.9480 N.pl3 220  ARG220      0.1354
    109  N         24.5110   16.2250   77.3840 N.3   261  GLN261     -0.1231
    110  CA        23.6640   17.3890   77.1640 C.3   261  GLN261      0.1698
    111  C         24.2930   18.7660   77.0600 C.2   261  GLN261      0.2592
    112  O         23.5910   19.7030   76.7220 O.2   261  GLN261     -0.2718
    113  CB        22.5720   17.4120   78.2340 C.3   261  GLN261      0.0381
    114  CG        21.4500   16.4070   77.9210 C.3   261  GLN261      0.0905
    115  CD        20.5480   16.9290   76.8240 C.2   261  GLN261      0.2608
    116  OE1       19.7630   17.8520   77.0550 O.2   261  GLN261     -0.2717
    117  NE2       20.6660   16.3660   75.6190 N.am  261  GLN261     -0.0878
    118  N         25.5790   18.8940   77.3780 N.am  262  THR262     -0.1953
    119  CA        26.2700   20.1780   77.2490 C.3   262  THR262      0.1897
    120  C         27.6920   19.9500   76.7300 C.2   262  THR262      0.2313
    121  O         28.2430   18.8540   76.8550 O.2   262  THR262     -0.2863
    122  CB        26.3910   20.9380   78.5830 C.3   262  THR262      0.1794
    123  OG1       27.3860   20.3090   79.3890 O.3   262  THR262     -0.2208
    124  CG2       25.0340   20.9550   79.3530 C.3   262  THR262      0.0378
    125  N         29.9930   18.7310   79.4250 N.3   265  GLN265     -0.1245
    126  CA        29.9300   17.3230   79.8420 C.3   265  GLN265      0.1566
    127  C         30.8030   16.5200   78.8660 C.2   265  GLN265      0.2260
    128  O         31.4250   15.5030   79.2380 O.2   265  GLN265     -0.2867
    129  CB        28.4840   16.8180   79.8370 C.3   265  GLN265      0.0367
    130  CG        27.6260   17.4350   80.9670 C.3   265  GLN265      0.0905
    131  CD        26.1740   16.9250   80.9860 C.2   265  GLN265      0.2608
    132  OE1       25.6400   16.4830   79.9620 O.2   265  GLN265     -0.2717
    133  NE2       25.5300   17.0060   82.1550 N.am  265  GLN265     -0.0878
@<TRIPOS>BOND
     1     4     3    2
     2     3     2    1
     3     1     2    1
     4     2     5    1
     5     5     6    1
     6    10     9    1
     7     6     7    1
     8     9    11    1
     9     9     8    2
    10     8     7    1
    11    38    37    2
    12    27    26    2
    13    39    36    1
    14    39    40    1
    15    36    37    1
    16    36    35    1
    17    37    43   am
    18    31    30    1
    19    31    32    2
    20    26    35   am
    21    26    25    1
    22    30    29    1
    23    42    40   ar
    24    40    41   ar
    25    43    44    1
    26    34    32    1
    27    29    28    1
    28    45    44    1
    29    45    46    2
    30    44    47    1
    31   117   115   am
    32    28    25    1
    33    32    33    1
    34    25    24    1
    35   112   111    2
    36   120   121    2
    37   120   119    1
    38   115   116    2
    39   115   114    1
    40    47    49    1
    41    47    48    1
    42    93    91    1
    43   111   110    1
    44   111   118   am
    45    92    90    1
    46   110   109    1
    47   110   113    1
    48   119   118    1
    49   119   122    1
    50    24    14   am
    51    15    14    2
    52    90    91    1
    53    90    87    1
    54   114   113    1
    55    14    13    1
    56    89    88    2
    57   122   124    1
    58   122   123    1
    59    87    88    1
    60    87    86    1
    61   127   128    2
    62   127   126    1
    63    88    94   am
    64    16    13    1
    65    16    17    1
    66    13    12    1
    67   125   126    1
    68   129   126    1
    69   129   130    1
    70    94    95    1
    71   132   131    2
    72    66    64   ar
    73    66    68   ar
    74    95    96    1
    75    84    83    2
    76    97    96    2
    77    64    63   ar
    78    68    67   ar
    79    85    82    1
    80    17    19   ar
    81    17    18   ar
    82   130   131    1
    83   131   133   am
    84    96    98   am
    85    83    82    1
    86    19    21   ar
    87    18    20   ar
    88    82    81    1
    89    63    65   ar
    90    63    62    1
    91    67    65   ar
    92    98    99    1
    93    21    22   ar
    94    20    22   ar
    95    62    59    1
    96    61    60    2
    97   100   101    2
    98   100    99    1
    99    81    77   am
   100    59    60    1
   101    59    58    1
   102    22    23    1
   103    99   102    1
   104    74    73    1
   105    78    77    2
   106    77    76    1
   107    58    52   am
   108   102   103    1
   109    56    55   ar
   110   103   104    1
   111    73    70    1
   112    69    70    1
   113    52    53    2
   114    52    51    1
   115    76    75    1
   116    76    79    1
   117    57    55   ar
   118    75    71   am
   119    55    54    1
   120    79    80    1
   121    71    70    1
   122    71    72    2
   123   105   104    1
   124   105   106    2
   125    51    54    1
   126    51    50    1
   127   108   106    1
   128   106   107    1
