@<TRIPOS>MOLECULE
tmp/2vewA00.pdb
 138 132 0 0 0
SMALL
GASTEIGER

@<TRIPOS>ATOM
      1  N         25.6850   16.7920   67.5870 N.3    22  ARG22      -0.1245
      2  CA        24.2290   16.8910   67.6010 C.3    22  ARG22       0.1563
      3  C         23.6640   16.8490   66.1810 C.2    22  ARG22       0.2260
      4  O         22.6240   16.2380   65.9250 O.2    22  ARG22      -0.2867
      5  CB        23.7870   18.1810   68.2760 C.3    22  ARG22       0.0307
      6  CG        24.1880   18.2840   69.7350 C.3    22  ARG22       0.0489
      7  CD        23.5100   19.4690   70.3730 C.3    22  ARG22       0.2205
      8  NE        22.0650   19.2960   70.3800 N.pl3  22  ARG22      -0.0865
      9  CZ        21.1990   20.2160   69.9640 C.cat  22  ARG22       0.5346
     10  NH1       21.6370   21.3770   69.5030 N.pl3  22  ARG22       0.1354
     11  NH2       19.8930   19.9790   70.0120 N.pl3  22  ARG22       0.1354
     12  N          9.4260   13.6610   80.0580 N.3    44  TYR44      -0.1227
     13  CA         9.6120   14.8340   79.1900 C.3    44  TYR44       0.1736
     14  C          9.1500   14.5310   77.7630 C.2    44  TYR44       0.2595
     15  O          9.5460   13.5080   77.1660 O.2    44  TYR44      -0.2718
     16  CB        11.0880   15.2630   79.1680 C.3    44  TYR44       0.0548
     17  CG        11.6860   15.5850   80.5410 C.ar   44  TYR44      -0.0200
     18  CD1       11.4120   16.7980   81.1850 C.ar   44  TYR44      -0.0009
     19  CD2       12.5160   14.6710   81.1880 C.ar   44  TYR44      -0.0009
     20  CE1       11.9650   17.0920   82.4540 C.ar   44  TYR44       0.0417
     21  CE2       13.0650   14.9440   82.4460 C.ar   44  TYR44       0.0417
     22  CZ        12.7870   16.1520   83.0720 C.ar   44  TYR44       0.1957
     23  OH        13.3300   16.3990   84.3090 O.3    44  TYR44      -0.2866
     24  N          8.3560   15.4450   77.1970 N.am   45  ARG45      -0.1966
     25  CA         7.8150   15.2530   75.8590 C.3    45  ARG45       0.1729
     26  C          8.8540   15.1800   74.7480 C.2    45  ARG45       0.2616
     27  O          8.6030   14.5960   73.6990 O.2    45  ARG45      -0.2715
     28  CB         6.8160   16.3630   75.5170 C.3    45  ARG45       0.0348
     29  CG         7.4450   17.7210   75.3540 C.3    45  ARG45       0.0492
     30  CD         6.4370   18.7460   74.7910 C.3    45  ARG45       0.2205
     31  NE         7.0430   20.0670   74.6540 N.pl3  45  ARG45      -0.0865
     32  CZ         7.1320   20.9520   75.6370 C.cat  45  ARG45       0.5346
     33  NH1        6.6410   20.6690   76.8360 N.pl3  45  ARG45       0.1354
     34  NH2        7.7400   22.1120   75.4230 N.pl3  45  ARG45       0.1354
     35  N         10.0210   15.7610   74.9750 N.am   46  ASP46      -0.1957
     36  CA        11.0420   15.7590   73.9550 C.3    46  ASP46       0.1840
     37  C         12.1650   14.7270   74.1970 C.2    46  ASP46       0.2621
     38  O         13.2100   14.7780   73.5520 O.2    46  ASP46      -0.2715
     39  CB        11.6190   17.1790   73.8130 C.3    46  ASP46       0.1450
     40  CG        12.2480   17.6840   75.0950 C.2    46  ASP46       0.3671
     41  OD1       11.9540   17.1340   76.1800 O.co2  46  ASP46      -0.2456
     42  OD2       13.0350   18.6440   75.0310 O.co2  46  ASP46      -0.2456
     43  N         11.9720   13.8200   75.1480 N.am   47  VAL47      -0.1977
     44  CA        12.9780   12.7880   75.3800 C.3    47  VAL47       0.1596
     45  C         12.2530   11.4520   75.3280 C.2    47  VAL47       0.2287
     46  O         11.5170   11.0760   76.2490 O.2    47  VAL47      -0.2864
     47  CB        13.7250   12.9660   76.7330 C.3    47  VAL47       0.0276
     48  CG1       14.8080   11.8770   76.8810 C.3    47  VAL47       0.0022
     49  CG2       14.3990   14.3600   76.7880 C.3    47  VAL47       0.0022
     50  N         22.3760   19.0610   87.5910 N.3   179  ASP179     -0.1225
     51  CA        21.7180   18.9000   86.2990 C.3   179  ASP179      0.1805
     52  C         22.3620   19.7960   85.2360 C.2   179  ASP179      0.2597
     53  O         22.6890   20.9460   85.4980 O.2   179  ASP179     -0.2718
     54  CB        20.2190   19.2210   86.4210 C.3   179  ASP179      0.1424
     55  CG        19.3860   18.4570   85.4120 C.2   179  ASP179      0.3668
     56  OD1       19.9900   17.7010   84.6270 O.co2 179  ASP179     -0.2456
     57  OD2       18.1440   18.6060   85.4030 O.co2 179  ASP179     -0.2456
     58  N         22.5390   19.2550   84.0360 N.am  180  PHE180     -0.1976
     59  CA        23.1960   19.9680   82.9420 C.3   180  PHE180      0.1639
     60  C         24.6030   20.3610   83.3700 C.2   180  PHE180      0.2290
     61  O         25.1980   21.2500   82.7900 O.2   180  PHE180     -0.2864
     62  CB        22.3950   21.2160   82.5180 C.3   180  PHE180      0.0560
     63  CG        21.1090   20.8900   81.8230 C.ar  180  PHE180     -0.0200
     64  CD1       21.1090   20.5170   80.4770 C.ar  180  PHE180     -0.0042
     65  CD2       19.9160   20.8410   82.5350 C.ar  180  PHE180     -0.0042
     66  CE1       19.9420   20.0920   79.8530 C.ar  180  PHE180     -0.0003
     67  CE2       18.7560   20.4210   81.9320 C.ar  180  PHE180     -0.0003
     68  CZ        18.7650   20.0420   80.5810 C.ar  180  PHE180     -0.0000
     69  N         19.1970    9.3290   85.2120 N.3   213  CYS213     -0.1221
     70  CA        19.3680   10.6170   85.8460 C.3   213  CYS213      0.1808
     71  C         17.9210   11.1430   85.7570 C.2   213  CYS213      0.2602
     72  O         17.0020   10.3890   86.0810 O.2   213  CYS213     -0.2717
     73  CB        20.4020   11.4890   85.0910 C.3   213  CYS213      0.0970
     74  SG        20.3300   11.4470   83.2680 S.3   213  CYS213     -0.0800
     75  N         17.6710   12.3910   85.3600 N.am  214  SER214     -0.1938
     76  CA        16.2660   12.8230   85.2880 C.3   214  SER214      0.2055
     77  C         15.6370   12.4070   83.9640 C.2   214  SER214      0.2642
     78  O         14.6090   11.7370   83.9570 O.2   214  SER214     -0.2714
     79  CB        16.1100   14.3360   85.4600 C.3   214  SER214      0.2130
     80  OG        14.7300   14.6590   85.6290 O.3   214  SER214     -0.2179
     81  N         16.2640   12.7950   82.8540 N.am  215  ALA215     -0.1977
     82  CA        15.8050   12.4450   81.4960 C.3   215  ALA215      0.1597
     83  C         16.5140   11.1750   80.9860 C.2   215  ALA215      0.2287
     84  O         16.1100   10.5600   79.9910 O.2   215  ALA215     -0.2864
     85  CB        16.1060   13.6030   80.5290 C.3   215  ALA215      0.0319
     86  N         19.6480   11.0790   79.7990 N.3   217  ILE217     -0.1231
     87  CA        20.4770   11.3500   78.6290 C.3   217  ILE217      0.1692
     88  C         21.7330   12.2080   78.8670 C.2   217  ILE217      0.2593
     89  O         22.7840   11.9090   78.2980 O.2   217  ILE217     -0.2718
     90  CB        19.6470   11.9740   77.4660 C.3   217  ILE217      0.0266
     91  CG1       19.0920   13.3410   77.8720 C.3   217  ILE217      0.0019
     92  CG2       18.4670   11.0240   77.0830 C.3   217  ILE217      0.0020
     93  CD1       18.3570   14.0530   76.7470 C.3   217  ILE217      0.0001
     94  N         21.6450   13.2510   79.6990 N.am  218  GLY218     -0.1942
     95  CA        22.8140   14.0960   79.9420 C.3   218  GLY218      0.2014
     96  C         23.8530   13.4170   80.8360 C.2   218  GLY218      0.2638
     97  O         24.9220   12.9970   80.3840 O.2   218  GLY218     -0.2714
     98  N         23.5290   13.3070   82.1180 N.am  219  ARG219     -0.1977
     99  CA        24.4260   12.6740   83.0860 C.3   219  ARG219      0.1597
    100  C         24.6110   11.1910   82.7800 C.2   219  ARG219      0.2287
    101  O         25.7450   10.7090   82.7460 O.2   219  ARG219     -0.2864
    102  CB        23.8920   12.9070   84.4990 C.3   219  ARG219      0.0334
    103  CG        24.0130   14.3890   84.8860 C.3   219  ARG219      0.0492
    104  CD        23.3030   14.7700   86.1780 C.3   219  ARG219      0.2205
    105  NE        21.8490   14.9450   86.0040 N.pl3 219  ARG219     -0.0865
    106  CZ        21.0240   15.2670   87.0010 C.cat 219  ARG219      0.5346
    107  NH1       21.5100   15.4450   88.2250 N.pl3 219  ARG219      0.1354
    108  NH2       19.7170   15.4110   86.7870 N.pl3 219  ARG219      0.1354
    109  N         18.5590    9.0140   72.0090 N.3   256  MET256     -0.1230
    110  CA        18.7990   10.3990   71.6340 C.3   256  MET256      0.1702
    111  C         19.4240   11.2190   72.7550 C.2   256  MET256      0.2592
    112  O         19.2770   10.8870   73.9370 O.2   256  MET256     -0.2718
    113  CB        17.4730   11.0780   71.2370 C.3   256  MET256      0.0401
    114  CG        16.4450   11.0960   72.3730 C.3   256  MET256      0.0596
    115  SD        14.9110   12.0080   72.0260 S.3   256  MET256     -0.1393
    116  CE        14.3730   11.2060   70.4760 C.3   256  MET256      0.0692
    117  N         20.1130   12.2900   72.3450 N.am  257  GLY257     -0.1957
    118  CA        20.6970   13.2570   73.2530 C.3   257  GLY257      0.1869
    119  C         21.7070   12.9130   74.3160 C.2   257  GLY257      0.2309
    120  O         21.8420   13.6670   75.2820 O.2   257  GLY257     -0.2863
    121  N         24.5170   16.2070   77.2620 N.3   260  GLN260     -0.1245
    122  CA        23.7050   17.3970   77.0100 C.3   260  GLN260      0.1566
    123  C         24.3610   18.7660   76.9430 C.2   260  GLN260      0.2260
    124  O         23.6780   19.7270   76.6310 O.2   260  GLN260     -0.2867
    125  CB        22.5500   17.4420   78.0200 C.3   260  GLN260      0.0367
    126  CG        21.4110   16.4720   77.6560 C.3   260  GLN260      0.0905
    127  CD        20.5190   17.0250   76.5610 C.2   260  GLN260      0.2608
    128  OE1       19.7920   17.9790   76.7920 O.2   260  GLN260     -0.2717
    129  NE2       20.5800   16.4400   75.3590 N.am  260  GLN260     -0.0878
    130  N         30.0090   18.6980   79.3160 N.3   264  GLN264     -0.1245
    131  CA        29.9370   17.2990   79.7710 C.3   264  GLN264      0.1566
    132  C         30.7910   16.4920   78.7740 C.2   264  GLN264      0.2260
    133  O         31.4000   15.4840   79.1320 O.2   264  GLN264     -0.2867
    134  CB        28.4830   16.7810   79.7860 C.3   264  GLN264      0.0367
    135  CG        27.5860   17.4560   80.8310 C.3   264  GLN264      0.0905
    136  CD        26.1340   16.9300   80.8220 C.2   264  GLN264      0.2608
    137  OE1       25.6160   16.5270   79.7770 O.2   264  GLN264     -0.2717
    138  NE2       25.4770   16.9610   81.9860 N.am  264  GLN264     -0.0878
@<TRIPOS>BOND
     1     4     3    2
     2     3     2    1
     3     1     2    1
     4     2     5    1
     5     5     6    1
     6    10     9    1
     7     6     7    1
     8     9    11    1
     9     9     8    2
    10     7     8    1
    11   116   115    1
    12   113   110    1
    13   113   114    1
    14   110   109    1
    15   110   111    1
    16   115   114    1
    17   117   111   am
    18   117   118    1
    19   111   112    2
    20   118   119    1
    21    38    37    2
    22    27    26    2
    23    39    36    1
    24    39    40    1
    25    36    37    1
    26    36    35    1
    27    37    43   am
    28   119   120    2
    29    31    30    1
    30    31    32    2
    31    26    35   am
    32    26    25    1
    33    30    29    1
    34    42    40   ar
    35    40    41   ar
    36    43    44    1
    37    45    44    1
    38    45    46    2
    39    29    28    1
    40   129   127   am
    41    44    47    1
    42    34    32    1
    43    28    25    1
    44    32    33    1
    45    25    24    1
    46   127   128    2
    47   127   126    1
    48   124   123    2
    49    47    49    1
    50    47    48    1
    51    93    91    1
    52   123   122    1
    53   122   121    1
    54   122   125    1
    55    92    90    1
    56    15    14    2
    57    24    14   am
    58    90    91    1
    59    90    87    1
    60   126   125    1
    61    14    13    1
    62    89    88    2
    63    87    88    1
    64    87    86    1
    65   132   133    2
    66   132   131    1
    67    88    94   am
    68    16    13    1
    69    16    17    1
    70    13    12    1
    71   130   131    1
    72    94    95    1
    73   131   134    1
    74   137   136    2
    75   134   135    1
    76    66    64   ar
    77    66    68   ar
    78    95    96    1
    79    84    83    2
    80    97    96    2
    81    64    63   ar
    82    85    82    1
    83    17    18   ar
    84    17    19   ar
    85    68    67   ar
    86   136   135    1
    87   136   138   am
    88    96    98   am
    89    83    82    1
    90    18    20   ar
    91    19    21   ar
    92    82    81    1
    93    63    62    1
    94    63    65   ar
    95    67    65   ar
    96    98    99    1
    97    21    22   ar
    98    20    22   ar
    99    62    59    1
   100   101   100    2
   101   100    99    1
   102    61    60    2
   103    81    77   am
   104    59    60    1
   105    59    58    1
   106    22    23    1
   107    99   102    1
   108    74    73    1
   109    78    77    2
   110    77    76    1
   111    58    52   am
   112   102   103    1
   113    56    55   ar
   114   103   104    1
   115    73    70    1
   116    69    70    1
   117    52    53    2
   118    52    51    1
   119    76    75    1
   120    76    79    1
   121    75    71   am
   122    57    55   ar
   123    55    54    1
   124    79    80    1
   125    71    70    1
   126    71    72    2
   127   105   104    1
   128   105   106    2
   129    51    54    1
   130    51    50    1
   131   108   106    1
   132   106   107    1
