@<TRIPOS>MOLECULE
tmp/2vexA00.pdb
 149 142 0 0 0
SMALL
GASTEIGER

@<TRIPOS>ATOM
      1  N         25.6900   16.9900   67.5810 N.3    22  ARG22      -0.1245
      2  CA        24.2300   17.0950   67.5820 C.3    22  ARG22       0.1563
      3  C         23.6800   17.0170   66.1570 C.2    22  ARG22       0.2260
      4  O         22.6520   16.3920   65.9140 O.2    22  ARG22      -0.2867
      5  CB        23.7700   18.4120   68.2190 C.3    22  ARG22       0.0307
      6  CG        24.1990   18.5890   69.6660 C.3    22  ARG22       0.0489
      7  CD        23.4630   19.7290   70.3310 C.3    22  ARG22       0.2205
      8  NE        22.0400   19.4320   70.4240 N.pl3  22  ARG22      -0.0865
      9  CZ        21.0890   20.1030   69.7790 C.cat  22  ARG22       0.5346
     10  NH1       21.4110   21.1230   68.9920 N.pl3  22  ARG22       0.1354
     11  NH2       19.8180   19.7430   69.9030 N.pl3  22  ARG22       0.1354
     12  N          9.2660   13.7520   80.0170 N.3    44  TYR44      -0.1227
     13  CA         9.4290   14.9440   79.1840 C.3    44  TYR44       0.1736
     14  C          8.9560   14.5810   77.7720 C.2    44  TYR44       0.2595
     15  O          9.3410   13.5270   77.2380 O.2    44  TYR44      -0.2718
     16  CB        10.9070   15.3760   79.1600 C.3    44  TYR44       0.0548
     17  CG        11.5160   15.6620   80.5350 C.ar   44  TYR44      -0.0200
     18  CD1       11.1580   16.7970   81.2590 C.ar   44  TYR44      -0.0009
     19  CD2       12.4240   14.7820   81.1120 C.ar   44  TYR44      -0.0009
     20  CE1       11.6810   17.0430   82.5240 C.ar   44  TYR44       0.0417
     21  CE2       12.9580   15.0190   82.3710 C.ar   44  TYR44       0.0417
     22  CZ        12.5760   16.1510   83.0790 C.ar   44  TYR44       0.1957
     23  OH        13.0410   16.3610   84.3600 O.3    44  TYR44      -0.2866
     24  N          8.1410   15.4520   77.1640 N.am   45  ARG45      -0.1966
     25  CA         7.5980   15.2010   75.8280 C.3    45  ARG45       0.1729
     26  C          8.6520   15.1470   74.7210 C.2    45  ARG45       0.2616
     27  O          8.4320   14.5440   73.6750 O.2    45  ARG45      -0.2715
     28  CB         6.5500   16.2670   75.4640 C.3    45  ARG45       0.0348
     29  CG         7.1530   17.6150   75.1420 C.3    45  ARG45       0.0492
     30  CD         6.1300   18.6170   74.6010 C.3    45  ARG45       0.2205
     31  NE         6.7500   19.9290   74.4010 N.pl3  45  ARG45      -0.0865
     32  CZ         6.9030   20.8320   75.3660 C.cat  45  ARG45       0.5346
     33  NH1        6.4620   20.5670   76.5960 N.pl3  45  ARG45       0.1354
     34  NH2        7.5300   21.9790   75.1170 N.pl3  45  ARG45       0.1354
     35  N          9.8010   15.7660   74.9510 N.am   46  ASP46      -0.1957
     36  CA        10.8510   15.7760   73.9470 C.3    46  ASP46       0.1840
     37  C         12.0200   14.8090   74.2070 C.2    46  ASP46       0.2621
     38  O         13.0750   14.9150   73.5800 O.2    46  ASP46      -0.2715
     39  CB        11.3780   17.2090   73.7680 C.3    46  ASP46       0.1450
     40  CG        11.9940   17.7610   75.0230 C.2    46  ASP46       0.3671
     41  OD1       11.6960   17.2380   76.1160 O.co2  46  ASP46      -0.2456
     42  OD2       12.7730   18.7300   74.9280 O.co2  46  ASP46      -0.2456
     43  N         11.8470   13.8750   75.1350 N.am   47  VAL47      -0.1977
     44  CA        12.8940   12.8930   75.3900 C.3    47  VAL47       0.1596
     45  C         12.2380   11.5280   75.3170 C.2    47  VAL47       0.2287
     46  O         11.6080   11.0930   76.2690 O.2    47  VAL47      -0.2864
     47  CB        13.5450   13.0500   76.7770 C.3    47  VAL47       0.0276
     48  CG1       14.6410   12.0060   76.9390 C.3    47  VAL47       0.0022
     49  CG2       14.1290   14.4470   76.9380 C.3    47  VAL47       0.0022
     50  N         22.1820   19.2240   87.5060 N.3   179  ASP179     -0.1225
     51  CA        21.5220   19.0180   86.2220 C.3   179  ASP179      0.1805
     52  C         22.1890   19.9470   85.2040 C.2   179  ASP179      0.2597
     53  O         22.4850   21.0980   85.5150 O.2   179  ASP179     -0.2718
     54  CB        20.0220   19.3130   86.3410 C.3   179  ASP179      0.1424
     55  CG        19.1940   18.5510   85.3140 C.2   179  ASP179      0.3668
     56  OD1       19.7630   17.7240   84.5830 O.co2 179  ASP179     -0.2456
     57  OD2       17.9710   18.7700   85.2400 O.co2 179  ASP179     -0.2456
     58  N         22.4350   19.4310   84.0020 N.am  180  PHE180     -0.1976
     59  CA        23.1260   20.1650   82.9410 C.3   180  PHE180      0.1639
     60  C         24.5170   20.5840   83.4010 C.2   180  PHE180      0.2290
     61  O         25.1190   21.4770   82.8260 O.2   180  PHE180     -0.2864
     62  CB        22.3150   21.3890   82.4990 C.3   180  PHE180      0.0560
     63  CG        21.0530   21.0290   81.7510 C.ar  180  PHE180     -0.0200
     64  CD1       21.1020   20.6760   80.4030 C.ar  180  PHE180     -0.0042
     65  CD2       19.8350   20.9800   82.4110 C.ar  180  PHE180     -0.0042
     66  CE1       19.9510   20.2750   79.7270 C.ar  180  PHE180     -0.0003
     67  CE2       18.6820   20.5790   81.7550 C.ar  180  PHE180     -0.0003
     68  CZ        18.7330   20.2240   80.4110 C.ar  180  PHE180     -0.0000
     69  N         19.1210    9.3810   85.1130 N.3   213  CYS213     -0.1221
     70  CA        19.2630   10.6750   85.7510 C.3   213  CYS213      0.1808
     71  C         17.8250   11.1900   85.6760 C.2   213  CYS213      0.2602
     72  O         16.9030   10.4340   85.9680 O.2   213  CYS213     -0.2717
     73  CB        20.2690   11.5940   85.0150 C.3   213  CYS213      0.0970
     74  SG        20.2140   11.6270   83.1860 S.3   213  CYS213     -0.0800
     75  N         17.5880   12.4400   85.3080 N.am  214  SER214     -0.1938
     76  CA        16.1910   12.8750   85.2480 C.3   214  SER214      0.2055
     77  C         15.5810   12.4650   83.9050 C.2   214  SER214      0.2642
     78  O         14.5560   11.8070   83.8700 O.2   214  SER214     -0.2714
     79  CB        16.0700   14.3890   85.4440 C.3   214  SER214      0.2130
     80  OG        14.7110   14.7510   85.6450 O.3   214  SER214     -0.2179
     81  N         16.2310   12.8380   82.8060 N.am  215  ALA215     -0.1977
     82  CA        15.7500   12.4940   81.4650 C.3   215  ALA215      0.1597
     83  C         16.4270   11.2260   80.9290 C.2   215  ALA215      0.2287
     84  O         15.9760   10.6190   79.9480 O.2   215  ALA215     -0.2864
     85  CB        16.0150   13.6470   80.5130 C.3   215  ALA215      0.0319
     86  N         19.5750   11.1280   79.7390 N.3   217  ILE217     -0.1231
     87  CA        20.3990   11.4330   78.5720 C.3   217  ILE217      0.1692
     88  C         21.6540   12.2610   78.8050 C.2   217  ILE217      0.2593
     89  O         22.6810   11.9710   78.2010 O.2   217  ILE217     -0.2718
     90  CB        19.5680   12.1010   77.4310 C.3   217  ILE217      0.0266
     91  CG1       18.9030   13.3970   77.9180 C.3   217  ILE217      0.0019
     92  CG2       18.5050   11.1170   76.9340 C.3   217  ILE217      0.0020
     93  CD1       18.1090   14.1100   76.8280 C.3   217  ILE217      0.0001
     94  N         21.5950   13.2680   79.6840 N.am  218  GLY218     -0.1942
     95  CA        22.7560   14.1220   79.9260 C.3   218  GLY218      0.2014
     96  C         23.8150   13.5130   80.8340 C.2   218  GLY218      0.2638
     97  O         24.9210   13.1790   80.3910 O.2   218  GLY218     -0.2714
     98  N         23.4830   13.3970   82.1190 N.am  219  ARG219     -0.1977
     99  CA        24.3910   12.8060   83.0910 C.3   219  ARG219      0.1597
    100  C         24.5660   11.3220   82.7760 C.2   219  ARG219      0.2287
    101  O         25.6850   10.8120   82.7510 O.2   219  ARG219     -0.2864
    102  CB        23.8310   13.0220   84.5080 C.3   219  ARG219      0.0334
    103  CG        23.8650   14.5130   84.8920 C.3   219  ARG219      0.0492
    104  CD        23.1130   14.8610   86.1680 C.3   219  ARG219      0.2205
    105  NE        21.6770   15.0430   85.9420 N.pl3 219  ARG219     -0.0865
    106  CZ        20.8310   15.4610   86.8850 C.cat 219  ARG219      0.5346
    107  NH1       21.2860   15.7450   88.1050 N.pl3 219  ARG219      0.1354
    108  NH2       19.5340   15.5690   86.6250 N.pl3 219  ARG219      0.1354
    109  N         24.6460    7.3940   70.5270 N.3   252  ARG252     -0.1245
    110  CA        23.4540    8.1340   70.1180 C.3   252  ARG252      0.1563
    111  C         22.5910    7.3890   69.0870 C.2   252  ARG252      0.2260
    112  O         21.4980    7.8350   68.7760 O.2   252  ARG252     -0.2867
    113  CB        23.8190    9.5340   69.6150 C.3   252  ARG252      0.0307
    114  CG        24.1560   10.5110   70.7590 C.3   252  ARG252      0.0489
    115  CD        24.0350   11.9490   70.2960 C.3   252  ARG252      0.2205
    116  NE        24.2460   12.9290   71.3630 N.pl3 252  ARG252     -0.0865
    117  CZ        23.6690   14.1280   71.3580 C.cat 252  ARG252      0.5346
    118  NH1       22.8670   14.4500   70.3520 N.pl3 252  ARG252      0.1354
    119  NH2       23.8920   15.0020   72.3300 N.pl3 252  ARG252      0.1354
    120  N         18.4630    9.0690   71.9830 N.3   256  MET256     -0.1230
    121  CA        18.6980   10.4550   71.5880 C.3   256  MET256      0.1702
    122  C         19.3210   11.3340   72.6750 C.2   256  MET256      0.2592
    123  O         19.1060   11.1090   73.8650 O.2   256  MET256     -0.2718
    124  CB        17.3800   11.1030   71.1810 C.3   256  MET256      0.0401
    125  CG        16.4000   11.1960   72.3420 C.3   256  MET256      0.0596
    126  SD        14.9000   12.0800   71.9380 S.3   256  MET256     -0.1393
    127  CE        14.1480   10.9910   70.8120 C.3   256  MET256      0.0692
    128  N         20.0960   12.3310   72.2310 N.am  257  GLY257     -0.1957
    129  CA        20.6970   13.3270   73.1060 C.3   257  GLY257      0.1869
    130  C         21.6670   12.9780   74.2090 C.2   257  GLY257      0.2309
    131  O         21.7410   13.7090   75.1910 O.2   257  GLY257     -0.2863
    132  N         24.4650   16.3670   77.2420 N.3   260  GLN260     -0.1245
    133  CA        23.6150   17.5270   77.0120 C.3   260  GLN260      0.1566
    134  C         24.2430   18.9110   76.9470 C.2   260  GLN260      0.2260
    135  O         23.5410   19.8640   76.6710 O.2   260  GLN260     -0.2867
    136  CB        22.4660   17.5260   78.0400 C.3   260  GLN260      0.0367
    137  CG        21.3440   16.5450   77.7110 C.3   260  GLN260      0.0905
    138  CD        20.4510   17.0560   76.5830 C.2   260  GLN260      0.2608
    139  OE1       19.6680   17.9930   76.7720 O.2   260  GLN260     -0.2717
    140  NE2       20.5780   16.4600   75.4060 N.am  260  GLN260     -0.0878
    141  N         29.8500   18.9450   79.3460 N.3   264  GLN264     -0.1245
    142  CA        29.7550   17.5570   79.7870 C.3   264  GLN264      0.1566
    143  C         30.6200   16.7540   78.7970 C.2   264  GLN264      0.2260
    144  O         31.2300   15.7420   79.1630 O.2   264  GLN264     -0.2867
    145  CB        28.3020   17.0620   79.7630 C.3   264  GLN264      0.0367
    146  CG        27.3870   17.7810   80.7560 C.3   264  GLN264      0.0905
    147  CD        26.0050   17.1580   80.8100 C.2   264  GLN264      0.2608
    148  OE1       25.4950   16.6990   79.7920 O.2   264  GLN264     -0.2717
    149  NE2       25.3940   17.1440   81.9900 N.am  264  GLN264     -0.0878
@<TRIPOS>BOND
     1     4     3    2
     2     3     2    1
     3     1     2    1
     4     2     5    1
     5     5     6    1
     6   112   111    2
     7    10     9    1
     8   111   110    1
     9   113   110    1
    10   113   114    1
    11     6     7    1
    12     9    11    1
    13     9     8    2
    14   110   109    1
    15   115   114    1
    16   115   116    1
    17     7     8    1
    18   118   117    1
    19   127   126    1
    20   124   121    1
    21   124   125    1
    22   117   116    2
    23   117   119    1
    24   121   120    1
    25   121   122    1
    26   126   125    1
    27   128   122   am
    28   128   129    1
    29   122   123    2
    30   129   130    1
    31    38    37    2
    32    27    26    2
    33    39    36    1
    34    39    40    1
    35    36    37    1
    36    36    35    1
    37    37    43   am
    38   130   131    2
    39    31    30    1
    40    31    32    2
    41    30    29    1
    42    26    35   am
    43    26    25    1
    44    42    40   ar
    45    40    41   ar
    46    34    32    1
    47    43    44    1
    48    29    28    1
    49    45    44    1
    50    45    46    2
    51    32    33    1
    52    44    47    1
    53   140   138   am
    54    28    25    1
    55    25    24    1
    56   138   139    2
    57   138   137    1
    58   135   134    2
    59    47    49    1
    60    47    48    1
    61    93    91    1
    62    92    90    1
    63   134   133    1
    64   133   132    1
    65   133   136    1
    66    24    14   am
    67    15    14    2
    68    90    91    1
    69    90    87    1
    70   137   136    1
    71    14    13    1
    72    89    88    2
    73    87    88    1
    74    87    86    1
    75   143   144    2
    76   143   142    1
    77    88    94   am
    78    16    13    1
    79    16    17    1
    80    13    12    1
    81   141   142    1
    82    94    95    1
    83    66    64   ar
    84    66    68   ar
    85   145   142    1
    86   145   146    1
    87   148   147    2
    88    95    96    1
    89    84    83    2
    90    97    96    2
    91    64    63   ar
    92    68    67   ar
    93    85    82    1
    94    17    19   ar
    95    17    18   ar
    96   146   147    1
    97   147   149   am
    98    96    98   am
    99    83    82    1
   100    19    21   ar
   101    18    20   ar
   102    82    81    1
   103    63    65   ar
   104    63    62    1
   105    67    65   ar
   106    98    99    1
   107    21    22   ar
   108    62    59    1
   109    20    22   ar
   110   101   100    2
   111   100    99    1
   112    81    77   am
   113    61    60    2
   114    59    60    1
   115    59    58    1
   116    22    23    1
   117    99   102    1
   118    74    73    1
   119    78    77    2
   120    77    76    1
   121    58    52   am
   122   102   103    1
   123    56    55   ar
   124   103   104    1
   125    73    70    1
   126    69    70    1
   127    52    53    2
   128    52    51    1
   129    57    55   ar
   130    76    75    1
   131    76    79    1
   132    75    71   am
   133    55    54    1
   134    79    80    1
   135    71    70    1
   136    71    72    2
   137   105   104    1
   138   105   106    2
   139    51    54    1
   140    51    50    1
   141   108   106    1
   142   106   107    1
