@<TRIPOS>MOLECULE
tmp/2veyA00.pdb
 149 142 0 0 0
SMALL
GASTEIGER

@<TRIPOS>ATOM
      1  N         25.8030   16.9210   67.3250 N.3    22  ARG22      -0.1245
      2  CA        24.3480   17.0550   67.3080 C.3    22  ARG22       0.1563
      3  C         23.8200   16.9580   65.8770 C.2    22  ARG22       0.2260
      4  O         22.8210   16.2930   65.6150 O.2    22  ARG22      -0.2867
      5  CB        23.9130   18.3920   67.9110 C.3    22  ARG22       0.0307
      6  CG        24.4790   18.6580   69.2840 C.3    22  ARG22       0.0489
      7  CD        23.8360   19.8710   69.8940 C.3    22  ARG22       0.2205
      8  NE        22.3890   19.6870   69.9670 N.pl3  22  ARG22      -0.0865
      9  CZ        21.4980   20.4040   69.2840 C.cat  22  ARG22       0.5346
     10  NH1       21.9020   21.3760   68.4710 N.pl3  22  ARG22       0.1354
     11  NH2       20.2030   20.1250   69.3860 N.pl3  22  ARG22       0.1354
     12  N          9.4740   13.8200   79.7870 N.3    44  TYR44      -0.1227
     13  CA         9.6880   14.9760   78.9160 C.3    44  TYR44       0.1736
     14  C          9.1940   14.6570   77.4960 C.2    44  TYR44       0.2595
     15  O          9.5880   13.6460   76.8940 O.2    44  TYR44      -0.2718
     16  CB        11.1800   15.3460   78.8820 C.3    44  TYR44       0.0548
     17  CG        11.7780   15.6510   80.2390 C.ar   44  TYR44      -0.0200
     18  CD1       11.5270   16.8650   80.8850 C.ar   44  TYR44      -0.0009
     19  CD2       12.5680   14.7050   80.8940 C.ar   44  TYR44      -0.0009
     20  CE1       12.0470   17.1310   82.1570 C.ar   44  TYR44       0.0417
     21  CE2       13.0920   14.9530   82.1610 C.ar   44  TYR44       0.0417
     22  CZ        12.8280   16.1640   82.7890 C.ar   44  TYR44       0.1957
     23  OH        13.3490   16.3900   84.0530 O.3    44  TYR44      -0.2866
     24  N          8.3370   15.5250   76.9620 N.am   45  ARG45      -0.1966
     25  CA         7.7990   15.3250   75.6220 C.3    45  ARG45       0.1729
     26  C          8.8660   15.2670   74.5400 C.2    45  ARG45       0.2616
     27  O          8.6360   14.7220   73.4630 O.2    45  ARG45      -0.2715
     28  CB         6.7980   16.4380   75.2630 C.3    45  ARG45       0.0348
     29  CG         7.4370   17.7930   75.0070 C.3    45  ARG45       0.0492
     30  CD         6.4090   18.8220   74.5040 C.3    45  ARG45       0.2205
     31  NE         7.0500   20.1070   74.2250 N.pl3  45  ARG45      -0.0865
     32  CZ         7.2960   21.0450   75.1360 C.cat  45  ARG45       0.5346
     33  NH1        6.9420   20.8650   76.3980 N.pl3  45  ARG45       0.1354
     34  NH2        7.9370   22.1540   74.7830 N.pl3  45  ARG45       0.1354
     35  N         10.0350   15.8280   74.8120 N.am   46  ASP46      -0.1957
     36  CA        11.0770   15.8300   73.7950 C.3    46  ASP46       0.1840
     37  C         12.2060   14.8080   74.0160 C.2    46  ASP46       0.2621
     38  O         13.2360   14.8560   73.3500 O.2    46  ASP46      -0.2715
     39  CB        11.6460   17.2550   73.6460 C.3    46  ASP46       0.1450
     40  CG        12.3850   17.7220   74.8850 C.2    46  ASP46       0.3671
     41  OD1       12.0740   17.2260   75.9890 O.co2  46  ASP46      -0.2456
     42  OD2       13.2710   18.5940   74.7590 O.co2  46  ASP46      -0.2456
     43  N         12.0220   13.8850   74.9520 N.am   47  VAL47      -0.1977
     44  CA        13.0450   12.8740   75.1740 C.3    47  VAL47       0.1596
     45  C         12.3500   11.5350   75.0820 C.2    47  VAL47       0.2287
     46  O         11.6490   11.1210   76.0060 O.2    47  VAL47      -0.2864
     47  CB        13.7170   13.0060   76.5520 C.3    47  VAL47       0.0276
     48  CG1       14.6900   11.8170   76.7630 C.3    47  VAL47       0.0022
     49  CG2       14.4550   14.3330   76.6430 C.3    47  VAL47       0.0022
     50  N         22.4860   18.9290   87.2870 N.3   179  ASP179     -0.1225
     51  CA        21.7960   18.8010   86.0040 C.3   179  ASP179      0.1805
     52  C         22.4710   19.7240   84.9810 C.2   179  ASP179      0.2597
     53  O         22.7430   20.8870   85.2760 O.2   179  ASP179     -0.2718
     54  CB        20.3140   19.1940   86.1360 C.3   179  ASP179      0.1424
     55  CG        19.4290   18.4610   85.1250 C.2   179  ASP179      0.3668
     56  OD1       19.9350   17.5050   84.5180 O.co2 179  ASP179     -0.2456
     57  OD2       18.2400   18.8120   84.9460 O.co2 179  ASP179     -0.2456
     58  N         22.7030   19.2030   83.7810 N.am  180  PHE180     -0.1976
     59  CA        23.3810   19.9450   82.7210 C.3   180  PHE180      0.1639
     60  C         24.8100   20.3240   83.1440 C.2   180  PHE180      0.2290
     61  O         25.4230   21.1880   82.5420 O.2   180  PHE180     -0.2864
     62  CB        22.5710   21.1980   82.3070 C.3   180  PHE180      0.0560
     63  CG        21.2850   20.8770   81.5400 C.ar  180  PHE180     -0.0200
     64  CD1       21.3150   20.6050   80.1820 C.ar  180  PHE180     -0.0042
     65  CD2       20.0640   20.7760   82.2010 C.ar  180  PHE180     -0.0042
     66  CE1       20.1550   20.2310   79.4920 C.ar  180  PHE180     -0.0003
     67  CE2       18.9070   20.4070   81.5200 C.ar  180  PHE180     -0.0003
     68  CZ        18.9590   20.1330   80.1610 C.ar  180  PHE180     -0.0000
     69  N         19.3200    9.2750   84.9000 N.3   213  CYS213     -0.1221
     70  CA        19.4910   10.5590   85.5730 C.3   213  CYS213      0.1808
     71  C         18.0510   11.0650   85.5160 C.2   213  CYS213      0.2602
     72  O         17.1490   10.3020   85.8280 O.2   213  CYS213     -0.2717
     73  CB        20.4690   11.4900   84.8130 C.3   213  CYS213      0.0970
     74  SG        20.3040   11.4870   83.0010 S.3   213  CYS213     -0.0800
     75  N         17.7990   12.3110   85.1230 N.am  214  SER214     -0.1938
     76  CA        16.4050   12.7460   85.0560 C.3   214  SER214      0.2055
     77  C         15.7770   12.3740   83.7110 C.2   214  SER214      0.2642
     78  O         14.7150   11.7590   83.6690 O.2   214  SER214     -0.2714
     79  CB        16.2740   14.2580   85.2840 C.3   214  SER214      0.2130
     80  OG        14.8990   14.6250   85.3680 O.3   214  SER214     -0.2179
     81  N         16.4420   12.7420   82.6150 N.am  215  ALA215     -0.1977
     82  CA        15.9680   12.4520   81.2570 C.3   215  ALA215      0.1597
     83  C         16.6150   11.1850   80.6770 C.2   215  ALA215      0.2287
     84  O         16.1690   10.6580   79.6590 O.2   215  ALA215     -0.2864
     85  CB        16.2790   13.6360   80.3450 C.3   215  ALA215      0.0319
     86  N         19.7940   11.0080   79.4840 N.3   217  ILE217     -0.1231
     87  CA        20.6080   11.3000   78.3130 C.3   217  ILE217      0.1692
     88  C         21.8690   12.1250   78.5420 C.2   217  ILE217      0.2593
     89  O         22.8990   11.8430   77.9210 O.2   217  ILE217     -0.2718
     90  CB        19.7680   11.9850   77.1700 C.3   217  ILE217      0.0266
     91  CG1       19.2680   13.3560   77.6060 C.3   217  ILE217      0.0019
     92  CG2       18.5800   11.0970   76.7720 C.3   217  ILE217      0.0020
     93  CD1       18.4300   14.0490   76.5560 C.3   217  ILE217      0.0001
     94  N         21.8010   13.1280   79.4220 N.am  218  GLY218     -0.1942
     95  CA        22.9510   13.9880   79.6800 C.3   218  GLY218      0.2014
     96  C         23.9890   13.3310   80.5600 C.2   218  GLY218      0.2638
     97  O         25.0340   12.8900   80.0910 O.2   218  GLY218     -0.2714
     98  N         23.7000   13.2720   81.8540 N.am  219  ARG219     -0.1977
     99  CA        24.6000   12.6400   82.8130 C.3   219  ARG219      0.1597
    100  C         24.7350   11.1450   82.5030 C.2   219  ARG219      0.2287
    101  O         25.8550   10.6030   82.5140 O.2   219  ARG219     -0.2864
    102  CB        24.0730   12.8890   84.2230 C.3   219  ARG219      0.0334
    103  CG        24.1550   14.3780   84.5990 C.3   219  ARG219      0.0492
    104  CD        23.4090   14.7500   85.8830 C.3   219  ARG219      0.2205
    105  NE        21.9740   14.9010   85.6670 N.pl3 219  ARG219     -0.0865
    106  CZ        21.1040   15.2100   86.6210 C.cat 219  ARG219      0.5346
    107  NH1       21.5240   15.4020   87.8670 N.pl3 219  ARG219      0.1354
    108  NH2       19.8130   15.3200   86.3320 N.pl3 219  ARG219      0.1354
    109  N         24.6290    7.3040   70.1960 N.3   252  ARG252     -0.1245
    110  CA        23.4360    8.0380   69.8120 C.3   252  ARG252      0.1563
    111  C         22.5470    7.3400   68.7630 C.2   252  ARG252      0.2260
    112  O         21.4460    7.8040   68.4660 O.2   252  ARG252     -0.2867
    113  CB        23.8200    9.4500   69.3730 C.3   252  ARG252      0.0307
    114  CG        23.8870   10.4640   70.5490 C.3   252  ARG252      0.0489
    115  CD        24.3120   11.8470   70.0380 C.3   252  ARG252      0.2205
    116  NE        24.3720   12.8640   71.0870 N.pl3 252  ARG252     -0.0865
    117  CZ        23.7580   14.0460   71.0270 C.cat 252  ARG252      0.5346
    118  NH1       23.0280   14.3800   69.9740 N.pl3 252  ARG252      0.1354
    119  NH2       23.8610   14.8910   72.0330 N.pl3 252  ARG252      0.1354
    120  N         18.6140    9.0830   71.7930 N.3   256  MET256     -0.1230
    121  CA        18.8600   10.4780   71.4500 C.3   256  MET256      0.1702
    122  C         19.4980   11.3280   72.5440 C.2   256  MET256      0.2592
    123  O         19.3970   11.0210   73.7330 O.2   256  MET256     -0.2718
    124  CB        17.5410   11.1530   71.0270 C.3   256  MET256      0.0401
    125  CG        16.4730   11.1660   72.1060 C.3   256  MET256      0.0596
    126  SD        15.0630   12.2300   71.7090 S.3   256  MET256     -0.1393
    127  CE        14.2430   11.2550   70.4310 C.3   256  MET256      0.0692
    128  N         20.1610   12.4000   72.1060 N.am  257  GLY257     -0.1957
    129  CA        20.7690   13.3560   73.0080 C.3   257  GLY257      0.1869
    130  C         21.7760   12.9450   74.0600 C.2   257  GLY257      0.2309
    131  O         21.9500   13.6700   75.0350 O.2   257  GLY257     -0.2863
    132  N         24.6530   16.2190   77.0590 N.3   260  GLN260     -0.1245
    133  CA        23.8660   17.4260   76.8460 C.3   260  GLN260      0.1566
    134  C         24.5630   18.7710   76.7680 C.2   260  GLN260      0.2260
    135  O         23.9070   19.7790   76.4830 O.2   260  GLN260     -0.2867
    136  CB        22.7410   17.4840   77.8890 C.3   260  GLN260      0.0367
    137  CG        21.5970   16.5280   77.5800 C.3   260  GLN260      0.0905
    138  CD        20.7470   17.0050   76.4160 C.2   260  GLN260      0.2608
    139  OE1       20.0380   18.0020   76.5320 O.2   260  GLN260     -0.2717
    140  NE2       20.8180   16.3010   75.2850 N.am  260  GLN260     -0.0878
    141  N         30.1370   18.6850   79.1120 N.3   264  GLN264     -0.1245
    142  CA        30.0360   17.2770   79.4940 C.3   264  GLN264      0.1566
    143  C         30.9120   16.4540   78.5410 C.2   264  GLN264      0.2260
    144  O         31.4800   15.4340   78.9330 O.2   264  GLN264     -0.2867
    145  CB        28.5830   16.7850   79.4320 C.3   264  GLN264      0.0367
    146  CG        27.7290   17.2740   80.5950 C.3   264  GLN264      0.0905
    147  CD        26.2930   16.7330   80.5670 C.2   264  GLN264      0.2608
    148  OE1       25.8350   16.1920   79.5490 O.2   264  GLN264     -0.2717
    149  NE2       25.5820   16.8830   81.6850 N.am  264  GLN264     -0.0878
@<TRIPOS>BOND
     1     4     3    2
     2     3     2    1
     3     2     1    1
     4     2     5    1
     5     5     6    1
     6   112   111    2
     7    10     9    1
     8   111   110    1
     9     9    11    1
    10     9     8    2
    11     6     7    1
    12   113   110    1
    13   113   114    1
    14   110   109    1
    15     7     8    1
    16   118   117    1
    17   115   114    1
    18   115   116    1
    19   127   126    1
    20   117   116    2
    21   117   119    1
    22   124   121    1
    23   124   125    1
    24   121   120    1
    25   121   122    1
    26   126   125    1
    27   128   122   am
    28   128   129    1
    29   122   123    2
    30   129   130    1
    31    38    37    2
    32    27    26    2
    33    39    36    1
    34    39    40    1
    35    36    37    1
    36    36    35    1
    37    37    43   am
    38   130   131    2
    39    31    30    1
    40    31    32    2
    41    30    29    1
    42    26    35   am
    43    26    25    1
    44    42    40   ar
    45    34    32    1
    46    40    41   ar
    47    43    44    1
    48    29    28    1
    49    45    44    1
    50    45    46    2
    51    32    33    1
    52    44    47    1
    53    28    25    1
    54   140   138   am
    55    25    24    1
    56   138   139    2
    57   138   137    1
    58   135   134    2
    59    47    49    1
    60    47    48    1
    61    93    91    1
    62   134   133    1
    63    92    90    1
    64   133   132    1
    65   133   136    1
    66    15    14    2
    67    24    14   am
    68    90    91    1
    69    90    87    1
    70    14    13    1
    71   137   136    1
    72    89    88    2
    73    87    88    1
    74    87    86    1
    75   143   144    2
    76   143   142    1
    77    88    94   am
    78    16    13    1
    79    16    17    1
    80    13    12    1
    81   141   142    1
    82    94    95    1
    83   145   142    1
    84   145   146    1
    85    66    68   ar
    86    66    64   ar
    87   148   147    2
    88    84    83    2
    89    95    96    1
    90    97    96    2
    91    68    67   ar
    92    64    63   ar
    93    17    18   ar
    94    17    19   ar
    95    85    82    1
    96    96    98   am
    97   147   146    1
    98   147   149   am
    99    83    82    1
   100    18    20   ar
   101    19    21   ar
   102    82    81    1
   103    67    65   ar
   104    63    65   ar
   105    63    62    1
   106    98    99    1
   107    20    22   ar
   108    21    22   ar
   109    62    59    1
   110   100   101    2
   111   100    99    1
   112    61    60    2
   113    81    77   am
   114    59    60    1
   115    59    58    1
   116    22    23    1
   117    99   102    1
   118    74    73    1
   119    78    77    2
   120    77    76    1
   121    58    52   am
   122   102   103    1
   123    56    55   ar
   124   103   104    1
   125    73    70    1
   126    69    70    1
   127    57    55   ar
   128    52    53    2
   129    52    51    1
   130    76    75    1
   131    76    79    1
   132    75    71   am
   133    55    54    1
   134    79    80    1
   135    71    70    1
   136    71    72    2
   137   105   104    1
   138   105   106    2
   139    51    54    1
   140    51    50    1
   141   108   106    1
   142   106   107    1
