@<TRIPOS>MOLECULE
tmp/2vezA00.pdb
 188 183 0 0 0
SMALL
GASTEIGER

@<TRIPOS>ATOM
      1  N         32.2980   38.2950   -6.3480 N.3    43  VAL43      -0.1231
      2  CA        31.9440   39.6740   -6.0060 C.3    43  VAL43       0.1692
      3  C         32.5640   40.1090   -4.6750 C.2    43  VAL43       0.2591
      4  O         32.7070   41.2910   -4.4090 O.2    43  VAL43      -0.2718
      5  CB        30.4060   39.9400   -5.9870 C.3    43  VAL43       0.0266
      6  CG1       29.7540   39.4150   -7.2590 C.3    43  VAL43       0.0020
      7  CG2       29.7660   39.3630   -4.7690 C.3    43  VAL43       0.0020
      8  N         32.9250   39.1460   -3.8370 N.am   44  LEU44      -0.1980
      9  CA        33.3170   39.4870   -2.4790 C.3    44  LEU44       0.1596
     10  C         34.7930   39.7780   -2.4780 C.2    44  LEU44       0.2287
     11  O         35.2370   40.8150   -1.9720 O.2    44  LEU44      -0.2864
     12  CB        32.9930   38.3430   -1.4970 C.3    44  LEU44       0.0297
     13  CG        32.6390   38.6420   -0.0280 C.3    44  LEU44       0.0022
     14  CD1       33.0420   37.4250    0.8060 C.3    44  LEU44       0.0001
     15  CD2       33.1940   39.9360    0.5870 C.3    44  LEU44       0.0001
     16  N         29.0670   35.2150   11.0790 N.3   103  ILE103     -0.1231
     17  CA        28.5790   35.2900    9.7030 C.3   103  ILE103      0.1692
     18  C         29.7650   35.6450    8.7900 C.2   103  ILE103      0.2592
     19  O         30.5630   36.5410    9.1010 O.2   103  ILE103     -0.2718
     20  CB        27.4050   36.2710    9.5800 C.3   103  ILE103      0.0266
     21  CG1       26.1270   35.5940   10.1070 C.3   103  ILE103      0.0019
     22  CG2       27.2530   36.7800    8.1200 C.3   103  ILE103      0.0020
     23  CD1       24.9080   36.4980   10.1470 C.3   103  ILE103      0.0001
     24  N         29.8950   34.9010    7.6990 N.am  104  GLU104     -0.1966
     25  CA        31.0390   35.0030    6.7950 C.3   104  GLU104      0.1733
     26  C         30.6250   34.9300    5.3400 C.2   104  GLU104      0.2616
     27  O         29.6340   34.2740    4.9760 O.2   104  GLU104     -0.2715
     28  CB        32.0130   33.8220    7.0010 C.3   104  GLU104      0.0429
     29  CG        32.4960   33.6230    8.4220 C.3   104  GLU104      0.1163
     30  CD        33.5220   34.6600    8.8710 C.2   104  GLU104      0.3649
     31  OE1       34.0760   35.4240    8.0260 O.co2 104  GLU104     -0.2457
     32  OE2       33.8030   34.6690   10.0970 O.co2 104  GLU104     -0.2457
     33  N         31.4100   35.5930    4.5050 N.am  105  ASP105     -0.1957
     34  CA        31.3640   35.3330    3.0660 C.3   105  ASP105      0.1840
     35  C         29.9800   35.5040    2.4460 C.2   105  ASP105      0.2622
     36  O         29.4780   34.6220    1.7160 O.2   105  ASP105     -0.2715
     37  CB        31.9580   33.9490    2.7650 C.3   105  ASP105      0.1450
     38  CG        33.3960   33.8330    3.2590 C.2   105  ASP105      0.3671
     39  OD1       34.0470   34.8840    3.3390 O.co2 105  ASP105     -0.2456
     40  OD2       33.8560   32.7040    3.5620 O.co2 105  ASP105     -0.2456
     41  N         29.4110   36.6780    2.7140 N.am  106  ILE106     -0.1963
     42  CA        28.1030   37.0670    2.1970 C.3   106  ILE106      0.1727
     43  C         28.3020   37.7150    0.8400 C.2   106  ILE106      0.2616
     44  O         29.0580   38.6740    0.7200 O.2   106  ILE106     -0.2715
     45  CB        27.4450   38.1040    3.1490 C.3   106  ILE106      0.0290
     46  CG1       27.3740   37.5410    4.5740 C.3   106  ILE106      0.0022
     47  CG2       26.0410   38.5040    2.6600 C.3   106  ILE106      0.0023
     48  CD1       26.5880   36.2240    4.7120 C.3   106  ILE106      0.0001
     49  N         27.6100   37.2010   -0.1840 N.am  107  ALA107     -0.1963
     50  CA        27.8100   37.6910   -1.5370 C.3   107  ALA107      0.1728
     51  C         26.5450   37.5200   -2.3510 C.2   107  ALA107      0.2616
     52  O         25.9110   36.4700   -2.2950 O.2   107  ALA107     -0.2715
     53  CB        28.9680   36.9570   -2.2020 C.3   107  ALA107      0.0334
     54  N         26.2030   38.5390   -3.1310 N.am  108  VAL108     -0.1977
     55  CA        25.0760   38.4330   -4.0630 C.3   108  VAL108      0.1596
     56  C         25.5770   38.8840   -5.4360 C.2   108  VAL108      0.2287
     57  O         26.2200   39.9380   -5.5590 O.2   108  VAL108     -0.2864
     58  CB        23.8910   39.3020   -3.5660 C.3   108  VAL108      0.0276
     59  CG1       22.7800   39.3560   -4.5990 C.3   108  VAL108      0.0022
     60  CG2       23.3300   38.7790   -2.2690 C.3   108  VAL108      0.0022
     61  N         21.6610   42.1100   -6.9810 N.3   113  GLN113     -0.1231
     62  CA        21.7440   42.9730   -5.8020 C.3   113  GLN113      0.1698
     63  C         20.5770   43.9560   -5.6830 C.2   113  GLN113      0.2593
     64  O         19.9070   44.2810   -6.6740 O.2   113  GLN113     -0.2718
     65  CB        23.0870   43.7060   -5.7780 C.3   113  GLN113      0.0381
     66  CG        24.2450   42.8060   -5.4350 C.3   113  GLN113      0.0905
     67  CD        25.5790   43.5460   -5.4830 C.2   113  GLN113      0.2608
     68  OE1       25.6170   44.7870   -5.5490 O.2   113  GLN113     -0.2717
     69  NE2       26.6790   42.7940   -5.4440 N.am  113  GLN113     -0.0878
     70  N         20.3190   44.4030   -4.4550 N.am  114  GLY114     -0.1942
     71  CA        19.3040   45.4110   -4.1900 C.3   114  GLY114      0.2014
     72  C         17.8700   44.9310   -4.3250 C.2   114  GLY114      0.2639
     73  O         16.9590   45.7320   -4.5980 O.2   114  GLY114     -0.2714
     74  N         17.6610   43.6340   -4.1060 N.am  115  LYS115     -0.1963
     75  CA        16.3380   42.9860   -4.1920 C.3   115  LYS115      0.1728
     76  C         16.0090   42.2330   -2.9000 C.2   115  LYS115      0.2616
     77  O         15.1450   41.3450   -2.8920 O.2   115  LYS115     -0.2715
     78  CB        16.2890   41.9450   -5.3360 C.3   115  LYS115      0.0311
     79  CG        16.6040   42.4290   -6.7300 C.3   115  LYS115      0.0038
     80  CD        16.5060   41.2530   -7.6790 C.3   115  LYS115      0.0206
     81  CE        16.2600   41.6730   -9.1250 C.3   115  LYS115      0.1093
     82  NZ        17.4630   42.2830   -9.7450 N.3   115  LYS115     -0.1314
     83  N         16.6980   42.5790   -1.8050 N.am  116  LYS116     -0.1963
     84  CA        16.4380   41.9690   -0.4860 C.3   116  LYS116      0.1728
     85  C         17.0750   40.5850   -0.3100 C.2   116  LYS116      0.2616
     86  O         16.9320   39.9810    0.7380 O.2   116  LYS116     -0.2715
     87  CB        14.9350   41.9080   -0.1110 C.3   116  LYS116      0.0311
     88  CG        14.1280   43.2120   -0.2600 C.3   116  LYS116      0.0038
     89  CD        14.5850   44.2940    0.7130 C.3   116  LYS116      0.0206
     90  CE        13.7640   45.5790    0.5790 C.3   116  LYS116      0.1093
     91  NZ        13.9250   46.1830   -0.7590 N.3   116  LYS116     -0.1314
     92  N         17.7980   40.0880   -1.3220 N.am  117  LEU117     -0.1963
     93  CA        18.4110   38.7520   -1.1800 C.3   117  LEU117      0.1728
     94  C         19.4690   38.6850   -0.0730 C.2   117  LEU117      0.2617
     95  O         19.5140   37.6990    0.6580 O.2   117  LEU117     -0.2715
     96  CB        18.9960   38.2400   -2.4980 C.3   117  LEU117      0.0311
     97  CG        17.9960   38.1920   -3.6550 C.3   117  LEU117      0.0022
     98  CD1       18.7090   37.6200   -4.8850 C.3   117  LEU117      0.0001
     99  CD2       16.7630   37.3390   -3.3090 C.3   117  LEU117      0.0001
    100  N         20.3030   39.7150    0.0440 N.am  118  GLY118     -0.1940
    101  CA        21.2970   39.7430    1.1090 C.3   118  GLY118      0.2014
    102  C         20.6240   39.7950    2.4800 C.2   118  GLY118      0.2638
    103  O         21.0100   39.0590    3.4130 O.2   118  GLY118     -0.2714
    104  N         19.5910   40.6300    2.6060 N.am  119  LEU119     -0.1977
    105  CA        18.8150   40.6770    3.8450 C.3   119  LEU119      0.1596
    106  C         18.3000   39.2870    4.2200 C.2   119  LEU119      0.2287
    107  O         18.3740   38.8770    5.3810 O.2   119  LEU119     -0.2864
    108  CB        17.6350   41.6600    3.6970 C.3   119  LEU119      0.0297
    109  CG        16.6230   41.6820    4.8510 C.3   119  LEU119      0.0022
    110  CD1       17.2650   42.1830    6.1590 C.3   119  LEU119      0.0001
    111  CD2       15.4170   42.5130    4.4750 C.3   119  LEU119      0.0001
    112  N         29.8140   39.6440   12.9990 N.3   139  LEU139     -0.1231
    113  CA        30.4720   39.6390   11.7090 C.3   139  LEU139      0.1693
    114  C         31.3390   40.9120   11.6280 C.2   139  LEU139      0.2592
    115  O         31.1900   41.8420   12.4290 O.2   139  LEU139     -0.2718
    116  CB        29.4210   39.5980   10.5690 C.3   139  LEU139      0.0284
    117  CG        28.4240   40.7530   10.5810 C.3   139  LEU139      0.0019
    118  CD1       28.8780   41.9680    9.7160 C.3   139  LEU139      0.0001
    119  CD2       27.0120   40.2870   10.1280 C.3   139  LEU139      0.0001
    120  N         32.2380   40.9420   10.6550 N.am  140  ASP140     -0.1960
    121  CA        32.9830   42.1470   10.3340 C.3   140  ASP140      0.1840
    122  C         32.5440   42.6880    8.9890 C.2   140  ASP140      0.2622
    123  O         32.2110   41.9300    8.0800 O.2   140  ASP140     -0.2715
    124  CB        34.4680   41.8370   10.3000 C.3   140  ASP140      0.1450
    125  CG        35.0050   41.4180   11.6490 C.2   140  ASP140      0.3671
    126  OD1       34.7410   42.0740   12.6710 O.co2 140  ASP140     -0.2456
    127  OD2       35.7040   40.4240   11.6700 O.co2 140  ASP140     -0.2456
    128  N         32.5510   44.0100    8.8760 N.am  141  CYS141     -0.1968
    129  CA        32.1590   44.6370    7.6270 C.3   141  CYS141      0.1712
    130  C         32.9940   45.8860    7.3770 C.2   141  CYS141      0.2296
    131  O         33.8260   46.2980    8.1950 O.2   141  CYS141     -0.2864
    132  CB        30.6600   44.9350    7.6240 C.3   141  CYS141      0.0983
    133  SG        30.1640   46.2920    8.7080 S.3   141  CYS141     -0.0798
    134  N         31.7520   51.0270    4.1070 N.3   144  ALA144     -0.1231
    135  CA        30.8420   51.1840    2.9580 C.3   144  ALA144      0.1694
    136  C         29.6230   50.2590    3.0360 C.2   144  ALA144      0.2592
    137  O         28.5840   50.5730    2.4690 O.2   144  ALA144     -0.2718
    138  CB        31.5860   50.9840    1.6650 C.3   144  ALA144      0.0304
    139  N         29.7380   49.1240    3.7300 N.am  145  ASN145     -0.1974
    140  CA        28.5360   48.2900    3.8180 C.3   145  ASN145      0.1688
    141  C         27.9400   48.1830    5.2230 C.2   145  ASN145      0.2292
    142  O         26.9630   47.4430    5.4360 O.2   145  ASN145     -0.2864
    143  CB        28.7040   46.9280    3.1090 C.3   145  ASN145      0.1181
    144  CG        29.7530   46.0720    3.7610 C.2   145  ASN145      0.2629
    145  OD1       30.2980   45.1310    3.1700 O.2   145  ASN145     -0.2716
    146  ND2       30.0490   46.4040    4.9950 N.am  145  ASN145     -0.0877
    147  N         25.8420   50.1450    6.4700 N.3   147  GLY147     -0.1210
    148  CA        24.4220   50.4780    6.3830 C.3   147  GLY147      0.1956
    149  C         23.5560   49.2870    6.0100 C.2   147  GLY147      0.2612
    150  O         22.3940   49.1960    6.4420 O.2   147  GLY147     -0.2717
    151  N         24.1180   48.3840    5.2040 N.am  148  PHE148     -0.1962
    152  CA        23.4260   47.1420    4.9250 C.3   148  PHE148      0.1771
    153  C         23.1940   46.3470    6.2050 C.2   148  PHE148      0.2619
    154  O         22.0850   45.9030    6.4640 O.2   148  PHE148     -0.2715
    155  CB        24.1810   46.3100    3.8940 C.3   148  PHE148      0.0574
    156  CG        23.6860   44.9030    3.7920 C.ar  148  PHE148     -0.0200
    157  CD1       24.4680   43.8500    4.2510 C.ar  148  PHE148     -0.0042
    158  CD2       22.4450   44.6360    3.2510 C.ar  148  PHE148     -0.0042
    159  CE1       24.0160   42.5320    4.1740 C.ar  148  PHE148     -0.0003
    160  CE2       21.9610   43.3410    3.1550 C.ar  148  PHE148     -0.0003
    161  CZ        22.7410   42.2690    3.6150 C.ar  148  PHE148     -0.0000
    162  N         24.2450   46.2060    7.0230 N.am  149  TYR149     -0.1974
    163  CA        24.1110   45.4410    8.2630 C.3   149  TYR149      0.1639
    164  C         23.2020   46.1080    9.2950 C.2   149  TYR149      0.2290
    165  O         22.4910   45.4210   10.0200 O.2   149  TYR149     -0.2864
    166  CB        25.4910   45.0560    8.8220 C.3   149  TYR149      0.0560
    167  CG        26.1210   44.0380    7.9180 C.ar  149  TYR149     -0.0198
    168  CD1       27.1540   44.3810    7.0460 C.ar  149  TYR149     -0.0009
    169  CD2       25.5810   42.7510    7.8480 C.ar  149  TYR149     -0.0009
    170  CE1       27.6760   43.4520    6.1460 C.ar  149  TYR149      0.0417
    171  CE2       26.0910   41.8260    6.9700 C.ar  149  TYR149      0.0417
    172  CZ        27.1270   42.1580    6.1400 C.ar  149  TYR149      0.1957
    173  OH        27.5790   41.2030    5.2700 O.3   149  TYR149     -0.2866
    174  N         20.5340   47.7840    8.3980 N.3   151  LYS151     -0.1231
    175  CA        19.2000   47.4310    7.8840 C.3   151  LYS151      0.1693
    176  C         18.8270   45.9610    8.1580 C.2   151  LYS151      0.2592
    177  O         17.6420   45.5890    8.1710 O.2   151  LYS151     -0.2718
    178  CB        19.0630   47.8330    6.3990 C.3   151  LYS151      0.0285
    179  CG        19.0140   49.3790    6.2270 C.3   151  LYS151      0.0035
    180  CD        18.3500   49.8310    4.9280 C.3   151  LYS151      0.0206
    181  CE        18.0660   51.3630    4.8690 C.3   151  LYS151      0.1093
    182  NZ        17.9050   51.9460    3.4570 N.3   151  LYS151     -0.1314
    183  N         19.8410   45.1430    8.4460 N.am  152  CYS152     -0.1970
    184  CA        19.6400   43.7530    8.8440 C.3   152  CYS152      0.1712
    185  C         19.4560   43.5980   10.3450 C.2   152  CYS152      0.2296
    186  O         19.2900   42.4790   10.8170 O.2   152  CYS152     -0.2864
    187  CB        20.8210   42.8740    8.4380 C.3   152  CYS152      0.0983
    188  SG        21.0080   42.6690    6.6810 S.3   152  CYS152     -0.0798
@<TRIPOS>BOND
     1    82    81    1
     2    81    80    1
     3    80    79    1
     4     6     5    1
     5    61    62    1
     6    79    78    1
     7    64    63    2
     8     1     2    1
     9     2     5    1
    10     2     3    1
    11     5     7    1
    12    62    65    1
    13    62    63    1
    14    65    66    1
    15    63    70   am
    16    57    56    2
    17    68    67    2
    18    67    69   am
    19    67    66    1
    20    56    55    1
    21    78    75    1
    22    98    97    1
    23     3     4    2
    24     3     8   am
    25    59    58    1
    26    73    72    2
    27    70    71    1
    28    72    71    1
    29    72    74   am
    30    75    74    1
    31    75    76    1
    32    55    58    1
    33    55    54    1
    34     8     9    1
    35    97    99    1
    36    97    96    1
    37    58    60    1
    38    54    51   am
    39    76    77    2
    40    76    83   am
    41    96    93    1
    42     9    10    1
    43     9    12    1
    44    10    11    2
    45    51    52    2
    46    51    50    1
    47    53    50    1
    48    83    84    1
    49    50    49    1
    50    12    13    1
    51    92    93    1
    52    92    85   am
    53    93    94    1
    54    91    90    1
    55    84    85    1
    56    84    87    1
    57    85    86    2
    58    88    87    1
    59    88    89    1
    60    49    43   am
    61    94   100   am
    62    94    95    2
    63    13    15    1
    64    13    14    1
    65   100   101    1
    66    90    89    1
    67    44    43    2
    68    43    42    1
    69   101   102    1
    70   138   135    1
    71    36    35    2
    72    42    41    1
    73    42    45    1
    74    35    41   am
    75    35    34    1
    76   137   136    2
    77   102   104   am
    78   102   103    2
    79   104   105    1
    80    47    45    1
    81    37    34    1
    82    37    38    1
    83   135   136    1
    84   135   134    1
    85   136   139   am
    86    34    33    1
    87   143   144    1
    88   143   140    1
    89    45    46    1
    90   160   158   ar
    91   160   161   ar
    92   145   144    2
    93   158   156   ar
    94    38    39   ar
    95    38    40   ar
    96   182   181    1
    97   161   159   ar
    98   108   105    1
    99   108   109    1
   100   139   140    1
   101   144   146   am
   102   156   155    1
   103   156   157   ar
   104   140   141    1
   105   105   106    1
   106   155   152    1
   107   159   157   ar
   108   106   107    2
   109   111   109    1
   110    33    26   am
   111    46    48    1
   112   109   110    1
   113   181   180    1
   114   152   151    1
   115   152   153    1
   116   180   179    1
   117    27    26    2
   118   151   149   am
   119   141   142    2
   120   173   172    1
   121    26    25    1
   122   149   148    1
   123   149   150    2
   124   172   170   ar
   125   172   171   ar
   126   170   168   ar
   127   153   154    2
   128   153   162   am
   129   179   178    1
   130   148   147    1
   131   178   175    1
   132   188   187    1
   133    25    28    1
   134    25    24    1
   135   171   169   ar
   136    28    29    1
   137   162   163    1
   138   168   167   ar
   139   130   129    1
   140   130   131    2
   141   132   129    1
   142   132   133    1
   143   129   128    1
   144    24    18   am
   145   169   167   ar
   146   175   176    1
   147   175   174    1
   148   167   166    1
   149    31    30   ar
   150   123   122    2
   151    22    20    1
   152   176   177    2
   153   176   183   am
   154   163   166    1
   155   163   164    1
   156    29    30    1
   157   187   184    1
   158   183   184    1
   159    18    19    2
   160    18    17    1
   161   184   185    1
   162    30    32   ar
   163   128   122   am
   164   122   121    1
   165   164   165    2
   166    20    17    1
   167    20    21    1
   168    17    16    1
   169   118   117    1
   170    21    23    1
   171   119   117    1
   172   124   121    1
   173   124   125    1
   174   121   120    1
   175   185   186    2
   176   116   117    1
   177   116   113    1
   178   120   114   am
   179   114   113    1
   180   114   115    2
   181   125   127   ar
   182   125   126   ar
   183   113   112    1
