@<TRIPOS>MOLECULE
tmp/2vezA01.pdb
 97 92 0 0 0
SMALL
GASTEIGER

@<TRIPOS>ATOM
      1  N         32.9250   39.1460   -3.8370 N.3    44  LEU44      -0.1231
      2  CA        33.3170   39.4870   -2.4790 C.3    44  LEU44       0.1693
      3  C         34.7930   39.7780   -2.4780 C.2    44  LEU44       0.2592
      4  O         35.2370   40.8150   -1.9720 O.2    44  LEU44      -0.2718
      5  CB        32.9930   38.3430   -1.4970 C.3    44  LEU44       0.0284
      6  CG        32.6390   38.6420   -0.0280 C.3    44  LEU44       0.0019
      7  CD1       33.0420   37.4250    0.8060 C.3    44  LEU44       0.0001
      8  CD2       33.1940   39.9360    0.5870 C.3    44  LEU44       0.0001
      9  N         35.5690   38.8900   -3.0760 N.am   45  THR45      -0.1953
     10  CA        37.0160   38.9530   -2.9070 C.3    45  THR45       0.1897
     11  C         37.5810   37.9030   -3.8430 C.2    45  THR45       0.2313
     12  O         36.8250   37.2730   -4.6060 O.2    45  THR45      -0.2863
     13  CB        37.3910   38.7090   -1.4030 C.3    45  THR45       0.1794
     14  OG1       38.7830   38.9580   -1.1690 O.3    45  THR45      -0.2208
     15  CG2       37.0570   37.3070   -0.9950 C.3    45  THR45       0.0378
     16  N         29.0670   35.2150   11.0790 N.3   103  ILE103     -0.1231
     17  CA        28.5790   35.2900    9.7030 C.3   103  ILE103      0.1692
     18  C         29.7650   35.6450    8.7900 C.2   103  ILE103      0.2592
     19  O         30.5630   36.5410    9.1010 O.2   103  ILE103     -0.2718
     20  CB        27.4050   36.2710    9.5800 C.3   103  ILE103      0.0266
     21  CG1       26.1270   35.5940   10.1070 C.3   103  ILE103      0.0019
     22  CG2       27.2530   36.7800    8.1200 C.3   103  ILE103      0.0020
     23  CD1       24.9080   36.4980   10.1470 C.3   103  ILE103      0.0001
     24  N         29.8950   34.9010    7.6990 N.am  104  GLU104     -0.1966
     25  CA        31.0390   35.0030    6.7950 C.3   104  GLU104      0.1733
     26  C         30.6250   34.9300    5.3400 C.2   104  GLU104      0.2616
     27  O         29.6340   34.2740    4.9760 O.2   104  GLU104     -0.2715
     28  CB        32.0130   33.8220    7.0010 C.3   104  GLU104      0.0429
     29  CG        32.4960   33.6230    8.4220 C.3   104  GLU104      0.1163
     30  CD        33.5220   34.6600    8.8710 C.2   104  GLU104      0.3649
     31  OE1       34.0760   35.4240    8.0260 O.co2 104  GLU104     -0.2457
     32  OE2       33.8030   34.6690   10.0970 O.co2 104  GLU104     -0.2457
     33  N         31.4100   35.5930    4.5050 N.am  105  ASP105     -0.1971
     34  CA        31.3640   35.3330    3.0660 C.3   105  ASP105      0.1709
     35  C         29.9800   35.5040    2.4460 C.2   105  ASP105      0.2293
     36  O         29.4780   34.6220    1.7160 O.2   105  ASP105     -0.2864
     37  CB        31.9580   33.9490    2.7650 C.3   105  ASP105      0.1436
     38  CG        33.3960   33.8330    3.2590 C.2   105  ASP105      0.3671
     39  OD1       34.0470   34.8840    3.3390 O.co2 105  ASP105     -0.2456
     40  OD2       33.8560   32.7040    3.5620 O.co2 105  ASP105     -0.2456
     41  N         29.8140   39.6440   12.9990 N.3   139  LEU139     -0.1231
     42  CA        30.4720   39.6390   11.7090 C.3   139  LEU139      0.1693
     43  C         31.3390   40.9120   11.6280 C.2   139  LEU139      0.2592
     44  O         31.1900   41.8420   12.4290 O.2   139  LEU139     -0.2718
     45  CB        29.4210   39.5980   10.5690 C.3   139  LEU139      0.0284
     46  CG        28.4240   40.7530   10.5810 C.3   139  LEU139      0.0019
     47  CD1       28.8780   41.9680    9.7160 C.3   139  LEU139      0.0001
     48  CD2       27.0120   40.2870   10.1280 C.3   139  LEU139      0.0001
     49  N         32.2380   40.9420   10.6550 N.am  140  ASP140     -0.1960
     50  CA        32.9830   42.1470   10.3340 C.3   140  ASP140      0.1840
     51  C         32.5440   42.6880    8.9890 C.2   140  ASP140      0.2622
     52  O         32.2110   41.9300    8.0800 O.2   140  ASP140     -0.2715
     53  CB        34.4680   41.8370   10.3000 C.3   140  ASP140      0.1450
     54  CG        35.0050   41.4180   11.6490 C.2   140  ASP140      0.3671
     55  OD1       34.7410   42.0740   12.6710 O.co2 140  ASP140     -0.2456
     56  OD2       35.7040   40.4240   11.6700 O.co2 140  ASP140     -0.2456
     57  N         32.5510   44.0100    8.8760 N.am  141  CYS141     -0.1954
     58  CA        32.1590   44.6370    7.6270 C.3   141  CYS141      0.1843
     59  C         32.9940   45.8860    7.3770 C.2   141  CYS141      0.2626
     60  O         33.8260   46.2980    8.1950 O.2   141  CYS141     -0.2714
     61  CB        30.6600   44.9350    7.6240 C.3   141  CYS141      0.0997
     62  SG        30.1640   46.2920    8.7080 S.3   141  CYS141     -0.0797
     63  N         32.8090   46.4810    6.2090 N.am  142  SER142     -0.1950
     64  CA        33.4770   47.7350    5.8660 C.3   142  SER142      0.1924
     65  C         32.6260   48.9330    6.2490 C.2   142  SER142      0.2314
     66  O         31.4140   48.8190    6.4640 O.2   142  SER142     -0.2863
     67  CB        33.7660   47.7880    4.3630 C.3   142  SER142      0.2116
     68  OG        32.5460   47.9010    3.6300 O.3   142  SER142     -0.2180
     69  N         29.7380   49.1240    3.7300 N.3   145  ASN145     -0.1240
     70  CA        28.5360   48.2900    3.8180 C.3   145  ASN145      0.1653
     71  C         27.9400   48.1830    5.2230 C.2   145  ASN145      0.2266
     72  O         26.9630   47.4430    5.4360 O.2   145  ASN145     -0.2867
     73  CB        28.7040   46.9280    3.1090 C.3   145  ASN145      0.1155
     74  CG        29.7530   46.0720    3.7610 C.2   145  ASN145      0.2627
     75  OD1       30.2980   45.1310    3.1700 O.2   145  ASN145     -0.2716
     76  ND2       30.0490   46.4040    4.9950 N.am  145  ASN145     -0.0877
     77  N         37.3910   45.6270   13.8560 N.3   160  GLU160     -0.1245
     78  CA        38.1400   44.5060   13.3200 C.3   160  GLU160      0.1567
     79  C         39.5950   44.8910   13.1440 C.2   160  GLU160      0.2260
     80  O         39.8900   45.9200   12.5170 O.2   160  GLU160     -0.2867
     81  CB        37.6000   44.0750   11.9560 C.3   160  GLU160      0.0388
     82  CG        38.3100   42.8290   11.4100 C.3   160  GLU160      0.1160
     83  CD        38.0430   42.5870    9.9450 C.2   160  GLU160      0.3649
     84  OE1       37.3120   43.3820    9.3180 O.co2 160  GLU160     -0.2457
     85  OE2       38.6280   41.6180    9.4030 O.co2 160  GLU160     -0.2457
     86  N         47.9460   40.4280    8.0870 N.3   164  TYR164     -0.1241
     87  CA        48.1210   39.6210    6.8640 C.3   164  TYR164      0.1605
     88  C         49.5590   39.1140    6.7470 C.2   164  TYR164      0.2264
     89  O         50.5100   39.8690    6.9730 O.2   164  TYR164     -0.2867
     90  CB        47.7540   40.4540    5.6040 C.3   164  TYR164      0.0534
     91  CG        46.2670   40.6000    5.3560 C.ar  164  TYR164     -0.0201
     92  CD1       45.6210   39.8660    4.3550 C.ar  164  TYR164     -0.0009
     93  CD2       45.5000   41.4660    6.1270 C.ar  164  TYR164     -0.0009
     94  CE1       44.2420   39.9980    4.1410 C.ar  164  TYR164      0.0417
     95  CE2       44.1380   41.5980    5.9330 C.ar  164  TYR164      0.0417
     96  CZ        43.5060   40.8750    4.9290 C.ar  164  TYR164      0.1957
     97  OH        42.1460   41.0300    4.7560 O.3   164  TYR164     -0.2866
@<TRIPOS>BOND
     1    12    11    2
     2    11    10    1
     3     1     2    1
     4     9    10    1
     5     9     3   am
     6    10    13    1
     7     2     3    1
     8     2     5    1
     9     3     4    2
    10     5     6    1
    11    13    14    1
    12    13    15    1
    13     6     8    1
    14     6     7    1
    15    36    35    2
    16    35    34    1
    17    37    34    1
    18    37    38    1
    19    34    33    1
    20    73    74    1
    21    73    70    1
    22    75    74    2
    23    38    39   ar
    24    38    40   ar
    25    68    67    1
    26    69    70    1
    27    74    76   am
    28    70    71    1
    29    94    92   ar
    30    94    96   ar
    31    92    91   ar
    32    67    64    1
    33    33    26   am
    34    97    96    1
    35    96    95   ar
    36    27    26    2
    37    71    72    2
    38    26    25    1
    39    91    90    1
    40    91    93   ar
    41    90    87    1
    42    64    63    1
    43    64    65    1
    44    95    93   ar
    45    63    59   am
    46    65    66    2
    47    88    87    1
    48    88    89    2
    49    25    28    1
    50    25    24    1
    51    87    86    1
    52    28    29    1
    53    59    58    1
    54    59    60    2
    55    61    58    1
    56    61    62    1
    57    58    57    1
    58    24    18   am
    59    31    30   ar
    60    52    51    2
    61    22    20    1
    62    29    30    1
    63    18    19    2
    64    18    17    1
    65    30    32   ar
    66    57    51   am
    67    51    50    1
    68    84    83   ar
    69    85    83   ar
    70    20    17    1
    71    20    21    1
    72    17    16    1
    73    47    46    1
    74    83    82    1
    75    21    23    1
    76    48    46    1
    77    53    50    1
    78    53    54    1
    79    50    49    1
    80    45    46    1
    81    45    42    1
    82    49    43   am
    83    82    81    1
    84    43    42    1
    85    43    44    2
    86    54    56   ar
    87    54    55   ar
    88    42    41    1
    89    81    78    1
    90    80    79    2
    91    79    78    1
    92    78    77    1
