@<TRIPOS>MOLECULE
tmp/2vf3A00.pdb
 140 132 0 0 0
SMALL
GASTEIGER

@<TRIPOS>ATOM
      1  N         44.7880   -2.8250  -32.5590 N.3    10  LYS10      -0.1245
      2  CA        43.5540   -3.5860  -32.7850 C.3    10  LYS10       0.1561
      3  C         42.6990   -3.5700  -31.5130 C.2    10  LYS10       0.2260
      4  O         43.1950   -3.2850  -30.4260 O.2    10  LYS10      -0.2867
      5  CB        43.8500   -5.0450  -33.1740 C.3    10  LYS10       0.0271
      6  CG        44.7490   -5.7900  -32.1980 C.3    10  LYS10       0.0035
      7  CD        44.0070   -6.5670  -31.1570 C.3    10  LYS10       0.0206
      8  CE        44.9240   -7.0500  -30.0630 C.3    10  LYS10       0.1093
      9  NZ        44.1140   -7.5150  -28.8620 N.3    10  LYS10      -0.1314
     10  N         39.7920   -6.5440  -29.8900 N.3    12  ASN12      -0.1240
     11  CA        39.0080   -7.7560  -30.0700 C.3    12  ASN12       0.1653
     12  C         37.5560   -7.4050  -29.8720 C.2    12  ASN12       0.2266
     13  O         37.1680   -6.9880  -28.7740 O.2    12  ASN12      -0.2867
     14  CB        39.4200   -8.7880  -29.0450 C.3    12  ASN12       0.1155
     15  CG        40.8300   -9.2240  -29.2420 C.2    12  ASN12       0.2627
     16  OD1       41.7690   -8.5590  -28.7960 O.2    12  ASN12      -0.2716
     17  ND2       41.0030  -10.3180  -29.9790 N.am   12  ASN12      -0.0877
     18  N         35.7280  -12.4740  -28.0300 N.3    15  LEU15      -0.1245
     19  CA        36.6980  -13.5520  -27.9230 C.3    15  LEU15       0.1561
     20  C         36.1120  -14.7250  -27.2050 C.2    15  LEU15       0.2260
     21  O         35.4110  -14.5740  -26.2040 O.2    15  LEU15      -0.2867
     22  CB        37.9900  -13.1080  -27.1970 C.3    15  LEU15       0.0270
     23  CG        39.1650  -14.1180  -27.1470 C.3    15  LEU15       0.0019
     24  CD1       40.5340  -13.4530  -27.2520 C.3    15  LEU15       0.0001
     25  CD2       39.1030  -14.9730  -25.8710 C.3    15  LEU15       0.0001
     26  N         50.7470  -27.3350  -26.5660 N.3    23  SER23      -0.1202
     27  CA        51.8780  -26.4030  -26.5820 C.3    23  SER23       0.2020
     28  C         51.8020  -25.2010  -25.6180 C.2    23  SER23       0.2619
     29  O         52.5750  -24.2420  -25.7760 O.2    23  SER23      -0.2717
     30  CB        52.1000  -25.8970  -28.0160 C.3    23  SER23       0.2103
     31  OG        50.9530  -25.1870  -28.4810 O.3    23  SER23      -0.2182
     32  N         50.9000  -25.2300  -24.6300 N.am   24  GLY24      -0.1942
     33  CA        50.7770  -24.0880  -23.6990 C.3    24  GLY24       0.2014
     34  C         49.4490  -23.8900  -22.9630 C.2    24  GLY24       0.2639
     35  O         49.4180  -23.9280  -21.7210 O.2    24  GLY24      -0.2714
     36  N         48.3610  -23.5560  -23.6530 N.am   25  TYR25      -0.1959
     37  CA        48.2650  -22.7650  -24.8890 C.3    25  TYR25       0.1771
     38  C         46.8300  -23.0650  -25.2900 C.2    25  TYR25       0.2619
     39  O         46.2660  -24.0760  -24.8590 O.2    25  TYR25      -0.2715
     40  CB        49.2720  -23.1120  -25.9830 C.3    25  TYR25       0.0574
     41  CG        49.8840  -21.9000  -26.6680 C.ar   25  TYR25      -0.0198
     42  CD1       51.2760  -21.7540  -26.7660 C.ar   25  TYR25      -0.0009
     43  CD2       49.0840  -20.9020  -27.2170 C.ar   25  TYR25      -0.0009
     44  CE1       51.8580  -20.6470  -27.4100 C.ar   25  TYR25       0.0417
     45  CE2       49.6510  -19.7720  -27.8610 C.ar   25  TYR25       0.0417
     46  CZ        51.0330  -19.6550  -27.9510 C.ar   25  TYR25       0.1957
     47  OH        51.5820  -18.5530  -28.5800 O.3    25  TYR25      -0.2866
     48  N         46.2050  -22.1570  -26.0270 N.am   26  HIS26      -0.1973
     49  CA        44.7410  -22.1790  -26.1380 C.3    26  HIS26       0.1656
     50  C         44.2470  -21.9220  -27.5410 C.2    26  HIS26       0.2291
     51  O         44.7010  -20.9980  -28.2080 O.2    26  HIS26      -0.2864
     52  CB        44.1010  -21.1920  -25.1350 C.3    26  HIS26       0.0771
     53  CG        44.0610  -21.7090  -23.7240 C.ar   26  HIS26       0.0820
     54  ND1       45.0620  -21.4600  -22.8040 N.ar   26  HIS26      -0.2267
     55  CD2       43.1380  -22.4650  -23.0780 C.ar   26  HIS26       0.1154
     56  CE1       44.7630  -22.0500  -21.6580 C.ar   26  HIS26       0.1986
     57  NE2       43.5990  -22.6620  -21.7950 N.ar   26  HIS26      -0.2212
     58  N         41.3870  -20.4790  -29.8490 N.3    28  ILE28      -0.1245
     59  CA        40.4630  -19.3870  -29.6100 C.3    28  ILE28       0.1561
     60  C         39.7110  -19.0900  -30.8890 C.2    28  ILE28       0.2260
     61  O         40.0850  -19.5710  -31.9870 O.2    28  ILE28      -0.2867
     62  CB        41.2170  -18.0680  -29.1010 C.3    28  ILE28       0.0252
     63  CG1       42.1200  -17.4740  -30.1820 C.3    28  ILE28       0.0019
     64  CG2       42.0390  -18.3450  -27.8200 C.3    28  ILE28       0.0019
     65  CD1       42.3980  -15.9760  -30.0810 C.3    28  ILE28       0.0001
     66  N         39.0690   -9.5780  -34.9050 N.3    32  TYR32      -0.1241
     67  CA        40.0360   -8.4720  -34.9140 C.3    32  TYR32       0.1605
     68  C         39.5220   -7.2770  -35.6530 C.2    32  TYR32       0.2264
     69  O         39.0690   -7.3960  -36.7790 O.2    32  TYR32      -0.2867
     70  CB        41.3300   -8.8610  -35.6530 C.3    32  TYR32       0.0534
     71  CG        42.1410   -9.9190  -34.9660 C.ar   32  TYR32      -0.0201
     72  CD1       42.6490   -9.7110  -33.6890 C.ar   32  TYR32      -0.0009
     73  CD2       42.4270  -11.1130  -35.6010 C.ar   32  TYR32      -0.0009
     74  CE1       43.3990  -10.6880  -33.0460 C.ar   32  TYR32       0.0417
     75  CE2       43.1710  -12.0990  -34.9680 C.ar   32  TYR32       0.0417
     76  CZ        43.6600  -11.8770  -33.7050 C.ar   32  TYR32       0.1957
     77  OH        44.3800  -12.8530  -33.0760 O.3    32  TYR32      -0.2866
     78  N         51.1160  -13.9170  -32.0220 N.3   130  ALA130     -0.1231
     79  CA        49.9800  -14.5990  -32.6180 C.3   130  ALA130      0.1694
     80  C         48.7180  -13.7990  -33.0290 C.2   130  ALA130      0.2592
     81  O         48.0890  -14.1440  -34.0440 O.2   130  ALA130     -0.2718
     82  CB        49.5160  -15.7450  -31.6520 C.3   130  ALA130      0.0304
     83  N         48.4040  -12.6770  -32.3510 N.am  131  ASP131     -0.1974
     84  CA        48.6180  -11.2610  -32.8490 C.3   131  ASP131      0.1709
     85  C         49.3290  -10.8740  -34.1360 C.2   131  ASP131      0.2293
     86  O         48.6310  -10.4430  -35.0540 O.2   131  ASP131     -0.2864
     87  CB        48.7760  -10.2050  -31.7320 C.3   131  ASP131      0.1436
     88  CG        49.2640  -10.7960  -30.4450 C.2   131  ASP131      0.3671
     89  OD1       50.4560  -11.2250  -30.4160 O.co2 131  ASP131     -0.2456
     90  OD2       48.4560  -10.8430  -29.4650 O.co2 131  ASP131     -0.2456
     91  N         45.0350  -19.9990  -33.0770 N.3   146  LYS146     -0.1245
     92  CA        45.4540  -19.2630  -31.8870 C.3   146  LYS146      0.1561
     93  C         45.4000  -17.7770  -32.2120 C.2   146  LYS146      0.2260
     94  O         45.8550  -16.9490  -31.4340 O.2   146  LYS146     -0.2867
     95  CB        46.8640  -19.7170  -31.4510 C.3   146  LYS146      0.0271
     96  CG        46.9030  -21.2170  -31.0930 C.3   146  LYS146      0.0035
     97  CD        48.2050  -21.6570  -30.4210 C.3   146  LYS146      0.0206
     98  CE        49.4620  -21.3650  -31.2610 C.3   146  LYS146      0.1093
     99  NZ        49.4180  -21.9540  -32.6380 N.3   146  LYS146     -0.1314
    100  N         48.6790  -11.2220  -19.8060 N.3   172  THR172     -0.1203
    101  CA        47.8280  -12.1700  -20.5160 C.3   172  THR172      0.1994
    102  C         48.0040  -13.5920  -19.9590 C.2   172  THR172      0.2618
    103  O         47.0340  -14.3440  -19.8560 O.2   172  THR172     -0.2717
    104  CB        48.1050  -12.1700  -22.0340 C.3   172  THR172      0.1784
    105  OG1       49.3710  -12.7940  -22.2830 O.3   172  THR172     -0.2211
    106  CG2       48.1120  -10.7510  -22.6140 C.3   172  THR172      0.0376
    107  N         49.2450  -13.9430  -19.6020 N.am  173  GLY173     -0.1956
    108  CA        49.5770  -15.2490  -19.0170 C.3   173  GLY173      0.1869
    109  C         48.8620  -15.5430  -17.7040 C.2   173  GLY173      0.2309
    110  O         48.3420  -16.6390  -17.5070 O.2   173  GLY173     -0.2863
    111  N         45.0850  -16.1440  -18.6770 N.3   176  TYR176     -0.1241
    112  CA        44.9140  -17.5310  -19.1440 C.3   176  TYR176      0.1605
    113  C         45.0720  -18.6010  -18.0330 C.2   176  TYR176      0.2264
    114  O         44.5770  -19.7170  -18.1840 O.2   176  TYR176     -0.2867
    115  CB        45.8260  -17.8370  -20.3410 C.3   176  TYR176      0.0534
    116  CG        45.3160  -17.3590  -21.6970 C.ar  176  TYR176     -0.0201
    117  CD1       45.7840  -16.1710  -22.2630 C.ar  176  TYR176     -0.0009
    118  CD2       44.3780  -18.1030  -22.4200 C.ar  176  TYR176     -0.0009
    119  CE1       45.3310  -15.7260  -23.5140 C.ar  176  TYR176      0.0417
    120  CE2       43.9130  -17.6650  -23.6840 C.ar  176  TYR176      0.0417
    121  CZ        44.3980  -16.4820  -24.2200 C.ar  176  TYR176      0.1957
    122  OH        43.9480  -16.0360  -25.4610 O.3   176  TYR176     -0.2866
    123  N         38.0620  -13.6290  -21.2340 N.3   209  LEU209     -0.1245
    124  CA        39.3380  -13.1290  -20.7280 C.3   209  LEU209      0.1561
    125  C         39.1190  -11.7820  -19.9840 C.2   209  LEU209      0.2260
    126  O         39.7270  -11.5260  -18.9320 O.2   209  LEU209     -0.2867
    127  CB        40.3460  -12.9850  -21.8640 C.3   209  LEU209      0.0270
    128  CG        40.7690  -14.2700  -22.6180 C.3   209  LEU209      0.0019
    129  CD1       41.9150  -13.9690  -23.5550 C.3   209  LEU209      0.0001
    130  CD2       41.1300  -15.4030  -21.6800 C.3   209  LEU209      0.0001
    131  N         41.3570   -7.6880  -26.0340 N.3   238  GLY238     -0.1210
    132  CA        42.3890   -8.6820  -25.6740 C.3   238  GLY238      0.1956
    133  C         42.0540   -9.3660  -24.3480 C.2   238  GLY238      0.2612
    134  O         40.9140   -9.7950  -24.1470 O.2   238  GLY238     -0.2717
    135  N         43.0200   -9.4100  -23.4230 N.am  239  SER239     -0.1952
    136  CA        42.7450   -9.8550  -22.0580 C.3   239  SER239      0.1924
    137  C         42.8090   -8.6530  -21.0890 C.2   239  SER239      0.2314
    138  O         43.2510   -8.7600  -19.9370 O.2   239  SER239     -0.2863
    139  CB        43.7110  -10.9730  -21.6460 C.3   239  SER239      0.2116
    140  OG        45.0480  -10.5460  -21.8250 O.3   239  SER239     -0.2180
@<TRIPOS>BOND
     1    69    68    2
     2    68    67    1
     3    70    71    1
     4    70    67    1
     5    73    75   ar
     6    73    71   ar
     7    86    85    2
     8    75    76   ar
     9    71    72   ar
    10    67    66    1
    11    85    84    1
    12    81    80    2
    13    76    77    1
    14    76    74   ar
    15    72    74   ar
    16     5     2    1
    17     5     6    1
    18    91    92    1
    19    80    79    1
    20    80    83   am
    21    84    83    1
    22    84    87    1
    23     2     1    1
    24     2     3    1
    25    99    98    1
    26    79    78    1
    27    79    82    1
    28    93    92    1
    29    93    94    2
    30     6     7    1
    31    61    60    2
    32    92    95    1
    33    87    88    1
    34     3     4    2
    35    95    96    1
    36    98    97    1
    37     7     8    1
    38    96    97    1
    39    60    59    1
    40    88    89   ar
    41    88    90   ar
    42    63    65    1
    43    63    62    1
    44    11    10    1
    45    11    12    1
    46    11    14    1
    47     8     9    1
    48    17    15   am
    49    12    13    2
    50    58    59    1
    51    59    62    1
    52    15    14    1
    53    15    16    2
    54    62    64    1
    55    47    46    1
    56    31    30    1
    57    51    50    2
    58    18    19    1
    59    30    27    1
    60    46    45   ar
    61    46    44   ar
    62    19    20    1
    63    19    22    1
    64    45    43   ar
    65    50    49    1
    66    44    42   ar
    67    24    23    1
    68    43    41   ar
    69    20    21    2
    70    22    23    1
    71    23    25    1
    72    42    41   ar
    73    41    40    1
    74    27    26    1
    75    27    28    1
    76    49    48    1
    77    49    52    1
    78   131   132    1
    79    48    38   am
    80    40    37    1
    81    29    28    2
    82   132   133    1
    83    28    32   am
    84   122   121    1
    85    38    37    1
    86    38    39    2
    87    52    53    1
    88    37    36    1
    89    32    33    1
    90   133   134    2
    91   133   135   am
    92   121   120   ar
    93   121   119   ar
    94    53    55   ar
    95    53    54   ar
    96    33    34    1
    97   120   118   ar
    98    36    34   am
    99   129   128    1
   100   119   117   ar
   101   135   136    1
   102    55    57   ar
   103    34    35    2
   104    54    56   ar
   105   128   127    1
   106   128   130    1
   107   106   104    1
   108   118   116   ar
   109   105   104    1
   110   117   116   ar
   111   136   139    1
   112   136   137    1
   113   104   101    1
   114   127   124    1
   115   140   139    1
   116    57    56   ar
   117   116   115    1
   118   123   124    1
   119   137   138    2
   120   124   125    1
   121   101   102    1
   122   101   100    1
   123   115   112    1
   124   125   126    2
   125   102   103    2
   126   102   107   am
   127   107   108    1
   128   112   111    1
   129   112   113    1
   130   108   109    1
   131   114   113    2
   132   109   110    2
