@<TRIPOS>MOLECULE
tmp/2vf3A01.pdb
 112 106 0 0 0
SMALL
GASTEIGER

@<TRIPOS>ATOM
      1  N         44.7880   -2.8250  -32.5590 N.3    10  LYS10      -0.1245
      2  CA        43.5540   -3.5860  -32.7850 C.3    10  LYS10       0.1561
      3  C         42.6990   -3.5700  -31.5130 C.2    10  LYS10       0.2260
      4  O         43.1950   -3.2850  -30.4260 O.2    10  LYS10      -0.2867
      5  CB        43.8500   -5.0450  -33.1740 C.3    10  LYS10       0.0271
      6  CG        44.7490   -5.7900  -32.1980 C.3    10  LYS10       0.0035
      7  CD        44.0070   -6.5670  -31.1570 C.3    10  LYS10       0.0206
      8  CE        44.9240   -7.0500  -30.0630 C.3    10  LYS10       0.1093
      9  NZ        44.1140   -7.5150  -28.8620 N.3    10  LYS10      -0.1314
     10  N         60.1020   -6.9060  -29.3590 N.3    62  LEU62      -0.1245
     11  CA        59.6600   -7.7690  -30.4700 C.3    62  LEU62       0.1561
     12  C         60.2150   -7.3480  -31.8260 C.2    62  LEU62       0.2260
     13  O         60.5710   -8.2030  -32.6460 O.2    62  LEU62      -0.2867
     14  CB        58.1280   -7.8220  -30.5590 C.3    62  LEU62       0.0270
     15  CG        57.2990   -8.3630  -29.3860 C.3    62  LEU62       0.0019
     16  CD1       55.8730   -8.6150  -29.8470 C.3    62  LEU62       0.0001
     17  CD2       57.8860   -9.6250  -28.7660 C.3    62  LEU62       0.0001
     18  N         55.5710    5.3380  -28.6090 N.3    86  LYS86      -0.1245
     19  CA        54.4980    4.4570  -28.1400 C.3    86  LYS86       0.1561
     20  C         53.2580    5.1820  -27.6100 C.2    86  LYS86       0.2260
     21  O         53.1760    5.4890  -26.4260 O.2    86  LYS86      -0.2867
     22  CB        55.0390    3.5180  -27.0610 C.3    86  LYS86       0.0271
     23  CG        56.1890    2.5880  -27.5460 C.3    86  LYS86       0.0035
     24  CD        55.7070    1.4990  -28.5260 C.3    86  LYS86       0.0206
     25  CE        54.5040    0.7050  -27.9510 C.3    86  LYS86       0.1093
     26  NZ        53.8780   -0.2740  -28.9220 N.3    86  LYS86      -0.1314
     27  N         50.3580    3.5540  -28.0310 N.3    88  ILE88      -0.1231
     28  CA        49.5990    2.3400  -27.6740 C.3    88  ILE88       0.1678
     29  C         50.3100    1.7130  -26.4830 C.2    88  ILE88       0.2434
     30  O         51.4280    1.2110  -26.6270 O.2    88  ILE88      -0.2733
     31  CB        49.4960    1.3260  -28.8890 C.3    88  ILE88       0.0265
     32  CG1       48.9570    2.0290  -30.1480 C.3    88  ILE88       0.0019
     33  CG2       48.6560    0.0700  -28.5290 C.3    88  ILE88       0.0020
     34  CD1       49.2660    1.2730  -31.4400 C.3    88  ILE88       0.0001
     35  N         49.6770    1.7640  -25.2880 N.am   89  PRO89      -0.2718
     36  CA        50.3390    1.2700  -24.0920 C.3    89  PRO89       0.1520
     37  C         50.4840   -0.2600  -24.0490 C.2    89  PRO89       0.2440
     38  O         49.5370   -0.9820  -24.3410 O.2    89  PRO89      -0.2731
     39  CB        49.4360    1.7970  -22.9480 C.3    89  PRO89       0.0310
     40  CG        48.5540    2.8360  -23.5970 C.3    89  PRO89       0.0237
     41  CD        48.3550    2.3380  -24.9720 C.3    89  PRO89       0.0939
     42  N         51.6900   -0.7470  -23.7040 N.am   90  PRO90      -0.2716
     43  CA        51.9190   -2.1870  -23.5120 C.3    90  PRO90       0.1536
     44  C         51.0060   -2.7090  -22.3890 C.2    90  PRO90       0.2599
     45  O         50.8300   -2.0390  -21.3940 O.2    90  PRO90      -0.2715
     46  CB        53.3950   -2.2690  -23.0950 C.3    90  PRO90       0.0310
     47  CG        54.0100   -0.9470  -23.5540 C.3    90  PRO90       0.0237
     48  CD        52.9030    0.0650  -23.4880 C.3    90  PRO90       0.0939
     49  N         50.4010   -3.8760  -22.5790 N.am   91  GLY91      -0.1941
     50  CA        49.4530   -4.4190  -21.6170 C.3    91  GLY91       0.2014
     51  C         48.0270   -3.9080  -21.7140 C.2    91  GLY91       0.2639
     52  O         47.1950   -4.2450  -20.8590 O.2    91  GLY91      -0.2714
     53  N         47.7250   -3.1300  -22.7520 N.am   92  ALA92      -0.1963
     54  CA        46.3960   -2.5620  -22.9380 C.3    92  ALA92       0.1728
     55  C         45.4270   -3.4560  -23.7420 C.2    92  ALA92       0.2617
     56  O         44.2280   -3.1130  -23.9020 O.2    92  ALA92      -0.2715
     57  CB        46.4990   -1.1810  -23.5730 C.3    92  ALA92       0.0334
     58  N         45.9600   -4.5550  -24.2780 N.am   93  GLY93      -0.1940
     59  CA        45.2000   -5.5530  -25.0420 C.3    93  GLY93       0.2014
     60  C         44.8800   -5.1000  -26.4550 C.2    93  GLY93       0.2639
     61  O         43.8670   -5.5210  -27.0380 O.2    93  GLY93      -0.2714
     62  N         45.7640   -4.2650  -27.0080 N.am   94  LEU94      -0.1963
     63  CA        45.5320   -3.5660  -28.2850 C.3    94  LEU94       0.1728
     64  C         46.5960   -3.9250  -29.3040 C.2    94  LEU94       0.2617
     65  O         46.6520   -3.3510  -30.3870 O.2    94  LEU94      -0.2715
     66  CB        45.5160   -2.0450  -28.0740 C.3    94  LEU94       0.0311
     67  CG        44.5670   -1.4490  -27.0260 C.3    94  LEU94       0.0022
     68  CD1       44.8860    0.0030  -26.8310 C.3    94  LEU94       0.0001
     69  CD2       43.1120   -1.6210  -27.4450 C.3    94  LEU94       0.0001
     70  N         47.4430   -4.8740  -28.9350 N.am   95  GLY95      -0.1940
     71  CA        48.4330   -5.4450  -29.8470 C.3    95  GLY95       0.2014
     72  C         49.5180   -4.5250  -30.3780 C.2    95  GLY95       0.2639
     73  O         50.0810   -4.7850  -31.4470 O.2    95  GLY95      -0.2714
     74  N         49.8400   -3.4690  -29.6220 N.am   96  GLY96      -0.1939
     75  CA        50.8710   -2.4820  -30.0220 C.3    96  GLY96       0.2014
     76  C         52.2330   -3.0560  -30.3750 C.2    96  GLY96       0.2639
     77  O         52.7920   -2.6960  -31.3940 O.2    96  GLY96      -0.2714
     78  N         52.7700   -3.9360  -29.5380 N.am   97  GLY97      -0.1939
     79  CA        54.0530   -4.6010  -29.8200 C.3    97  GLY97       0.2014
     80  C         54.0810   -5.4300  -31.1140 C.2    97  GLY97       0.2639
     81  O         55.0590   -5.3990  -31.8820 O.2    97  GLY97      -0.2714
     82  N         52.9820   -6.1380  -31.3520 N.am   98  SER98      -0.1949
     83  CA        52.8020   -7.0490  -32.4730 C.3    98  SER98       0.1924
     84  C         52.6320   -6.2570  -33.7440 C.2    98  SER98       0.2314
     85  O         53.1550   -6.6320  -34.8130 O.2    98  SER98      -0.2863
     86  CB        51.5580   -7.9160  -32.2320 C.3    98  SER98       0.2116
     87  OG        51.6900   -8.6570  -31.0170 O.3    98  SER98      -0.2180
     88  N         48.4040  -12.6770  -32.3510 N.3   131  ASP131     -0.1239
     89  CA        48.6180  -11.2610  -32.8490 C.3   131  ASP131      0.1674
     90  C         49.3290  -10.8740  -34.1360 C.2   131  ASP131      0.2266
     91  O         48.6310  -10.4430  -35.0540 O.2   131  ASP131     -0.2867
     92  CB        48.7760  -10.2050  -31.7320 C.3   131  ASP131      0.1410
     93  CG        49.2640  -10.7960  -30.4450 C.2   131  ASP131      0.3668
     94  OD1       50.4560  -11.2250  -30.4160 O.co2 131  ASP131     -0.2456
     95  OD2       48.4560  -10.8430  -29.4650 O.co2 131  ASP131     -0.2456
     96  N         47.6980   -5.4990  -17.8690 N.3   170  SER170     -0.1217
     97  CA        47.1950   -6.8610  -17.7860 C.3   170  SER170      0.1889
     98  C         48.2530   -7.8440  -18.3130 C.2   170  SER170      0.2288
     99  O         48.7520   -7.6970  -19.4480 O.2   170  SER170     -0.2866
    100  CB        45.8940   -7.0000  -18.5810 C.3   170  SER170      0.2089
    101  OG        45.2980   -8.2610  -18.3780 O.3   170  SER170     -0.2183
    102  N         48.6790  -11.2220  -19.8060 N.3   172  THR172     -0.1218
    103  CA        47.8280  -12.1700  -20.5160 C.3   172  THR172      0.1862
    104  C         48.0040  -13.5920  -19.9590 C.2   172  THR172      0.2287
    105  O         47.0340  -14.3440  -19.8560 O.2   172  THR172     -0.2866
    106  CB        48.1050  -12.1700  -22.0340 C.3   172  THR172      0.1770
    107  OG1       49.3710  -12.7940  -22.2830 O.3   172  THR172     -0.2211
    108  CG2       48.1120  -10.7510  -22.6140 C.3   172  THR172      0.0375
    109  N         42.2990   -7.5240  -21.5790 N.3   240  GLY240     -0.1225
    110  CA        42.4590   -6.2370  -20.9600 C.3   240  GLY240      0.1811
    111  C         43.8230   -5.6560  -21.2990 C.2   240  GLY240      0.2280
    112  O         44.6110   -6.2980  -21.9800 O.2   240  GLY240     -0.2866
@<TRIPOS>BOND
     1    91    90    2
     2    85    84    2
     3    90    89    1
     4    84    83    1
     5     5     2    1
     6     5     6    1
     7    89    88    1
     8    89    92    1
     9     2     1    1
    10     2     3    1
    11    13    12    2
    12    83    86    1
    13    83    82    1
    14    86    87    1
    15     6     7    1
    16    81    80    2
    17    12    11    1
    18    92    93    1
    19     3     4    2
    20    73    72    2
    21    34    32    1
    22    77    76    2
    23    82    80   am
    24     7     8    1
    25    80    79    1
    26    14    11    1
    27    14    15    1
    28    11    10    1
    29    93    94   ar
    30    93    95   ar
    31    65    64    2
    32    72    71    1
    33    72    74   am
    34    76    75    1
    35    76    78   am
    36    32    31    1
    37     8     9    1
    38    75    74    1
    39    16    15    1
    40    71    70    1
    41    79    78    1
    42    15    17    1
    43    64    70   am
    44    64    63    1
    45    26    25    1
    46    31    33    1
    47    31    28    1
    48    18    19    1
    49    24    25    1
    50    24    23    1
    51    63    66    1
    52    63    62    1
    53    19    20    1
    54    19    22    1
    55    66    67    1
    56    27    28    1
    57    28    29    1
    58    20    21    2
    59    23    22    1
    60    69    67    1
    61    61    60    2
    62    67    68    1
    63    62    60   am
    64    30    29    2
    65    29    35   am
    66    60    59    1
    67    35    41    1
    68    35    36    1
    69    59    58    1
    70    41    40    1
    71    38    37    2
    72    58    55   am
    73    36    37    1
    74    36    39    1
    75    37    42   am
    76    56    55    2
    77    55    54    1
    78    42    43    1
    79    42    48    1
    80    40    39    1
    81    57    54    1
    82    47    48    1
    83    47    46    1
    84    43    46    1
    85    43    44    1
    86    54    53    1
    87    53    51   am
    88   108   106    1
    89    49    44   am
    90    49    50    1
    91    44    45    2
    92   107   106    1
    93   106   103    1
    94   112   111    2
    95    51    50    1
    96    51    52    2
    97   109   110    1
    98   111   110    1
    99   103   104    1
   100   103   102    1
   101   104   105    2
   102    99    98    2
   103   100   101    1
   104   100    97    1
   105    98    97    1
   106    96    97    1
