@<TRIPOS>MOLECULE
tmp/2vf8A00.pdb
 159 153 0 0 0
SMALL
GASTEIGER

@<TRIPOS>ATOM
      1  N         47.4590  145.9210   98.6320 N.3    15  HIS15      -0.1226
      2  CA        47.5800  145.9830  100.0850 C.3    15  HIS15       0.1752
      3  C         47.6920  147.4040  100.6300 C.2    15  HIS15       0.2596
      4  O         46.8980  148.2630  100.2770 O.2    15  HIS15      -0.2718
      5  CB        48.7410  145.1360  100.5180 C.3    15  HIS15       0.0759
      6  CG        48.5930  143.7050  100.1320 C.ar   15  HIS15       0.0818
      7  ND1       49.6700  142.8560   99.9770 N.ar   15  HIS15      -0.2268
      8  CD2       47.4910  142.9650   99.8810 C.ar   15  HIS15       0.1154
      9  CE1       49.2340  141.6500   99.6550 C.ar   15  HIS15       0.1986
     10  NE2       47.9150  141.6890   99.5930 N.ar   15  HIS15      -0.2212
     11  N         48.6810  147.6700  101.4700 N.am   16  ASN16      -0.1974
     12  CA        48.8150  149.0100  102.0400 C.3    16  ASN16       0.1688
     13  C         49.4190  150.0470  101.1090 C.2    16  ASN16       0.2292
     14  O         49.4860  151.2180  101.4870 O.2    16  ASN16      -0.2864
     15  CB        49.6520  148.9790  103.3080 C.3    16  ASN16       0.1181
     16  CG        51.0720  148.6500  103.0270 C.2    16  ASN16       0.2629
     17  OD1       51.9960  149.4040  103.3600 O.2    16  ASN16      -0.2716
     18  ND2       51.2650  147.5230  102.3640 N.am   16  ASN16      -0.0877
     19  N         61.1090  148.9950  106.3060 N.3    35  VAL35      -0.1231
     20  CA        60.6640  148.3120  107.5170 C.3    35  VAL35       0.1692
     21  C         59.7770  147.1000  107.2230 C.2    35  VAL35       0.2593
     22  O         59.0450  147.0970  106.2450 O.2    35  VAL35      -0.2718
     23  CB        59.9160  149.3060  108.4040 C.3    35  VAL35       0.0266
     24  CG1       58.9830  148.5890  109.3300 C.3    35  VAL35       0.0020
     25  CG2       60.9030  150.1650  109.1860 C.3    35  VAL35       0.0020
     26  N         59.8360  146.0750  108.0680 N.am   36  SER36      -0.1938
     27  CA        58.9700  144.9310  107.8830 C.3    36  SER36       0.2055
     28  C         57.5460  145.3890  107.8930 C.2    36  SER36       0.2644
     29  O         57.2030  146.2450  108.6370 O.2    36  SER36      -0.2714
     30  CB        59.1570  143.8790  108.9630 C.3    36  SER36       0.2130
     31  OG        58.3260  142.7520  108.6560 O.3    36  SER36      -0.2179
     32  N         56.7200  144.8120  107.0430 N.am   37  GLY37      -0.1939
     33  CA        55.3480  145.2670  106.8900 C.3    37  GLY37       0.2014
     34  C         55.1170  146.4900  106.0010 C.2    37  GLY37       0.2640
     35  O         53.9790  146.7660  105.6660 O.2    37  GLY37      -0.2714
     36  N         56.1730  147.1990  105.5960 N.am   38  SER38      -0.1935
     37  CA        56.0490  148.4850  104.9070 C.3    38  SER38       0.2055
     38  C         55.4300  148.4700  103.4790 C.2    38  SER38       0.2644
     39  O         54.7100  149.4330  103.0960 O.2    38  SER38      -0.2714
     40  CB        57.4130  149.1520  104.8320 C.3    38  SER38       0.2130
     41  OG        58.2460  148.4190  103.9390 O.3    38  SER38      -0.2179
     42  N         55.7240  147.4330  102.6880 N.am   39  GLY39      -0.1939
     43  CA        55.1880  147.3490  101.3230 C.3    39  GLY39       0.2014
     44  C         56.0890  146.7020  100.2660 C.2    39  GLY39       0.2639
     45  O         55.6530  146.4280   99.1450 O.2    39  GLY39      -0.2714
     46  N         57.3420  146.4330  100.6240 N.am   40  LYS40      -0.1963
     47  CA        58.3220  145.8410   99.7000 C.3    40  LYS40       0.1728
     48  C         57.7830  144.6320   98.9170 C.2    40  LYS40       0.2617
     49  O         57.9800  144.5380   97.7060 O.2    40  LYS40      -0.2715
     50  CB        59.6190  145.4050  100.4310 C.3    40  LYS40       0.0311
     51  CG        60.2110  146.3180  101.5370 C.3    40  LYS40       0.0038
     52  CD        61.5020  145.7280  102.1240 C.3    40  LYS40       0.0206
     53  CE        61.2750  144.5040  103.0080 C.3    40  LYS40       0.1093
     54  NZ        60.7510  144.7600  104.3790 N.3    40  LYS40      -0.1314
     55  N         57.1390  143.6870   99.5950 N.am   41  SER41      -0.1936
     56  CA        56.6930  142.4600   98.9110 C.3    41  SER41       0.2055
     57  C         55.5420  142.7820   97.9770 C.2    41  SER41       0.2643
     58  O         55.5010  142.3300   96.8220 O.2    41  SER41      -0.2714
     59  CB        56.2650  141.3890   99.9020 C.3    41  SER41       0.2130
     60  OG        57.2400  141.2560  100.9170 O.3    41  SER41      -0.2179
     61  N         54.6260  143.6080   98.4620 N.am   42  SER42      -0.1949
     62  CA        53.4840  143.9920   97.6590 C.3    42  SER42       0.1924
     63  C         53.8990  144.8680   96.4680 C.2    42  SER42       0.2314
     64  O         53.1690  144.9470   95.4890 O.2    42  SER42      -0.2863
     65  CB        52.3900  144.6070   98.5430 C.3    42  SER42       0.2116
     66  OG        52.0110  143.6830   99.5840 O.3    42  SER42      -0.2180
     67  N         53.6200  133.2360   99.4640 N.3    90  ARG90      -0.1245
     68  CA        53.5850  133.1650  100.9390 C.3    90  ARG90       0.1563
     69  C         52.7790  131.9750  101.4980 C.2    90  ARG90       0.2260
     70  O         53.2750  131.2290  102.3710 O.2    90  ARG90      -0.2867
     71  CB        53.0730  134.4850  101.5160 C.3    90  ARG90       0.0307
     72  CG        53.9910  135.1190  102.5220 C.3    90  ARG90       0.0489
     73  CD        53.3400  136.4130  102.9800 C.3    90  ARG90       0.2205
     74  NE        54.2830  137.4160  103.4700 N.pl3  90  ARG90      -0.0865
     75  CZ        54.7090  138.4580  102.7600 C.cat  90  ARG90       0.5346
     76  NH1       54.2820  138.6420  101.5120 N.pl3  90  ARG90       0.1354
     77  NH2       55.5600  139.3250  103.2980 N.pl3  90  ARG90       0.1354
     78  N         52.3910  148.9620  107.5960 N.3   447  GLY447     -0.1225
     79  CA        50.9610  149.0210  107.2780 C.3   447  GLY447      0.1811
     80  C         50.3700  150.3740  106.9190 C.2   447  GLY447      0.2280
     81  O         50.9640  151.1530  106.1820 O.2   447  GLY447     -0.2866
     82  N         37.8040  132.0530  103.1860 N.3   618  TRP618     -0.1241
     83  CA        38.6920  132.0130  102.0180 C.3   618  TRP618      0.1605
     84  C         38.5130  130.6240  101.3620 C.2   618  TRP618      0.2264
     85  O         38.9710  129.5980  101.9070 O.2   618  TRP618     -0.2867
     86  CB        40.1740  132.2660  102.4300 C.3   618  TRP618      0.0550
     87  CG        40.4500  133.6910  102.8970 C.ar  618  TRP618      0.0003
     88  CD1       39.9560  134.2910  104.0230 C.ar  618  TRP618      0.0946
     89  CD2       41.2670  134.6850  102.2450 C.ar  618  TRP618      0.0152
     90  NE1       40.4010  135.5900  104.1100 N.ar  618  TRP618     -0.2442
     91  CE2       41.2080  135.8600  103.0360 C.ar  618  TRP618      0.0810
     92  CE3       42.0410  134.7010  101.0710 C.ar  618  TRP618      0.0012
     93  CZ2       41.8940  137.0460  102.6890 C.ar  618  TRP618      0.0191
     94  CZ3       42.7300  135.8870  100.7260 C.ar  618  TRP618      0.0001
     95  CH2       42.6420  137.0400  101.5350 C.ar  618  TRP618      0.0015
     96  N         50.0640  146.4440  113.1330 N.3   685  TYR685     -0.1227
     97  CA        49.5940  146.6800  111.7560 C.3   685  TYR685      0.1736
     98  C         48.5870  145.6620  111.2090 C.2   685  TYR685      0.2595
     99  O         47.9460  145.9310  110.1960 O.2   685  TYR685     -0.2718
    100  CB        50.7810  146.8970  110.7780 C.3   685  TYR685      0.0548
    101  CG        51.6990  145.7070  110.4690 C.ar  685  TYR685     -0.0200
    102  CD1       51.3840  144.8040  109.4520 C.ar  685  TYR685     -0.0009
    103  CD2       52.9060  145.5310  111.1390 C.ar  685  TYR685     -0.0009
    104  CE1       52.2240  143.7360  109.1320 C.ar  685  TYR685      0.0417
    105  CE2       53.7520  144.4720  110.8210 C.ar  685  TYR685      0.0417
    106  CZ        53.3980  143.5870  109.8140 C.ar  685  TYR685      0.1957
    107  OH        54.2030  142.5370  109.4840 O.3   685  TYR685     -0.2866
    108  N         48.4280  144.5300  111.9010 N.am  686  LEU686     -0.1966
    109  CA        47.7210  143.3430  111.3740 C.3   686  LEU686      0.1728
    110  C         46.2600  143.1380  111.7690 C.2   686  LEU686      0.2616
    111  O         45.8570  143.3720  112.9090 O.2   686  LEU686     -0.2715
    112  CB        48.4420  142.0810  111.8170 C.3   686  LEU686      0.0311
    113  CG        49.8810  141.8790  111.4030 C.3   686  LEU686      0.0022
    114  CD1       50.5980  141.3320  112.5750 C.3   686  LEU686      0.0001
    115  CD2       49.9100  140.8930  110.3060 C.3   686  LEU686      0.0001
    116  N         45.4960  142.6370  110.8030 N.am  687  ARG687     -0.1977
    117  CA        44.1630  142.0760  111.0360 C.3   687  ARG687      0.1597
    118  C         44.2640  140.9020  112.0000 C.2   687  ARG687      0.2287
    119  O         45.2120  140.1020  111.9390 O.2   687  ARG687     -0.2864
    120  CB        43.5100  141.5900  109.7260 C.3   687  ARG687      0.0334
    121  CG        43.2500  142.6680  108.6820 C.3   687  ARG687      0.0492
    122  CD        42.0860  142.2880  107.7410 C.3   687  ARG687      0.2205
    123  NE        42.3540  141.1610  106.8420 N.pl3 687  ARG687     -0.0865
    124  CZ        43.3180  141.1250  105.9120 C.cat 687  ARG687      0.5346
    125  NH1       44.1600  142.1420  105.7590 N.pl3 687  ARG687      0.1354
    126  NH2       43.4530  140.0570  105.1290 N.pl3 687  ARG687      0.1354
    127  N         43.3720  137.8560  109.7370 N.3   690  GLN690     -0.1245
    128  CA        44.2990  137.6320  108.6290 C.3   690  GLN690      0.1566
    129  C         44.8310  136.2370  108.8270 C.2   690  GLN690      0.2260
    130  O         45.3350  135.9170  109.9090 O.2   690  GLN690     -0.2867
    131  CB        45.4480  138.6430  108.6680 C.3   690  GLN690      0.0367
    132  CG        46.0250  138.9990  107.2940 C.3   690  GLN690      0.0905
    133  CD        47.0040  140.1920  107.3450 C.2   690  GLN690      0.2608
    134  OE1       46.6080  141.3730  107.3060 O.2   690  GLN690     -0.2717
    135  NE2       48.3020  139.8680  107.4020 N.am  690  GLN690     -0.0878
    136  N         49.3580  134.0110  105.3960 N.3   694  GLU694     -0.1245
    137  CA        49.5300  135.3050  104.7630 C.3   694  GLU694      0.1567
    138  C         50.6210  136.0830  105.4910 C.2   694  GLU694      0.2260
    139  O         51.1790  137.0550  104.9740 O.2   694  GLU694     -0.2867
    140  CB        48.2310  136.0930  104.7470 C.3   694  GLU694      0.0388
    141  CG        47.4250  135.8320  103.5060 C.3   694  GLU694      0.1160
    142  CD        46.1430  136.6330  103.4580 C.2   694  GLU694      0.3649
    143  OE1       45.1570  136.1220  102.8490 O.co2 694  GLU694     -0.2457
    144  OE2       46.1370  137.7580  104.0280 O.co2 694  GLU694     -0.2457
    145  N         54.2780  136.7570  107.3200 N.3   696  SER696     -0.1217
    146  CA        55.6040  136.6080  106.7560 C.3   696  SER696      0.1889
    147  C         56.4990  135.5510  107.4120 C.2   696  SER696      0.2288
    148  O         57.6280  135.3580  106.9870 O.2   696  SER696     -0.2866
    149  CB        56.3140  137.9700  106.6810 C.3   696  SER696      0.2089
    150  OG        56.9490  138.2980  107.9060 O.3   696  SER696     -0.2183
    151  N         56.8510  137.3490  110.6200 N.3   699  GLU699     -0.1245
    152  CA        55.6560  137.7350  111.3630 C.3   699  GLU699      0.1567
    153  C         55.2420  136.6000  112.2700 C.2   699  GLU699      0.2260
    154  O         55.1440  136.7890  113.4800 O.2   699  GLU699     -0.2867
    155  CB        54.5100  138.1480  110.4300 C.3   699  GLU699      0.0388
    156  CG        54.7120  139.5010  109.7340 C.3   699  GLU699      0.1160
    157  CD        53.6870  139.8060  108.6320 C.2   699  GLU699      0.3649
    158  OE1       52.5740  140.2380  108.9670 O.co2 699  GLU699     -0.2457
    159  OE2       53.9990  139.6580  107.4310 O.co2 699  GLU699     -0.2457
@<TRIPOS>BOND
     1    64    63    2
     2    63    62    1
     3    58    57    2
     4    62    61    1
     5    62    65    1
     6    49    48    2
     7    57    61   am
     8    57    56    1
     9    65    66    1
    10     1     2    1
    11    56    55    1
    12    56    59    1
    13    48    55   am
    14    48    47    1
    15    45    44    2
    16    67    68    1
    17    10     9   ar
    18    10     8   ar
    19     9     7   ar
    20    47    50    1
    21    47    46    1
    22     8     6   ar
    23    59    60    1
    24     7     6   ar
    25     2     5    1
    26     2     3    1
    27     6     5    1
    28    44    46   am
    29    44    43    1
    30     4     3    2
    31    50    51    1
    32     3    11   am
    33    94    92   ar
    34    94    95   ar
    35    68    69    1
    36    68    71    1
    37    92    89   ar
    38    13    14    2
    39    13    12    1
    40    43    42    1
    41    84    85    2
    42    84    83    1
    43    11    12    1
    44    69    70    2
    45    76    75    1
    46    71    72    1
    47    95    93   ar
    48    51    52    1
    49    83    86    1
    50    83    82    1
    51    12    15    1
    52    52    53    1
    53    89    87   ar
    54    89    91   ar
    55    18    16   am
    56    86    87    1
    57    72    73    1
    58    42    38   am
    59    93    91   ar
    60    75    77    1
    61    75    74    2
    62   143   142   ar
    63    87    88   ar
    64    73    74    1
    65    53    54    1
    66    16    15    1
    67    16    17    2
    68    91    90   ar
    69    39    38    2
    70   142   141    1
    71   142   144   ar
    72    38    37    1
    73   141   140    1
    74    41    40    1
    75    88    90   ar
    76   140   137    1
    77   137   136    1
    78   137   138    1
    79    40    37    1
    80    37    36    1
    81   139   138    2
    82   126   124    1
    83    36    34   am
    84    35    34    2
    85   125   124    1
    86   124   123    2
    87    34    33    1
    88    81    80    2
    89    22    21    2
    90    19    20    1
    91   149   146    1
    92   149   150    1
    93   146   145    1
    94   146   147    1
    95   123   122    1
    96    33    32    1
    97    80    79    1
    98   148   147    2
    99    32    28   am
   100    21    20    1
   101    21    26   am
   102    79    78    1
   103   132   133    1
   104   132   131    1
   105   134   133    2
   106   133   135   am
   107   159   157   ar
   108    20    23    1
   109   122   121    1
   110    27    28    1
   111    27    26    1
   112    27    30    1
   113    28    29    2
   114    23    25    1
   115    23    24    1
   116   128   131    1
   117   128   129    1
   118   128   127    1
   119   157   158   ar
   120   157   156    1
   121    31    30    1
   122   121   120    1
   123   129   130    2
   124   104   102   ar
   125   104   106   ar
   126   102   101   ar
   127   107   106    1
   128   120   117    1
   129   156   155    1
   130   106   105   ar
   131    99    98    2
   132   115   113    1
   133   155   152    1
   134   101   100    1
   135   101   103   ar
   136   151   152    1
   137   100    97    1
   138   116   117    1
   139   116   110   am
   140   105   103   ar
   141   117   118    1
   142    98    97    1
   143    98   108   am
   144   152   153    1
   145   109   110    1
   146   109   112    1
   147   109   108    1
   148   113   112    1
   149   113   114    1
   150    97    96    1
   151   110   111    2
   152   119   118    2
   153   153   154    2
