@<TRIPOS>MOLECULE
tmp/2vf8B01.pdb
 164 156 0 0 0
SMALL
GASTEIGER

@<TRIPOS>ATOM
      1  N         35.0030  142.2830   60.0310 N.3   363  TYR363     -0.1227
      2  CA        33.9500  141.4390   59.4820 C.3   363  TYR363      0.1736
      3  C         33.4900  140.2690   60.3950 C.2   363  TYR363      0.2595
      4  O         32.4700  139.6330   60.1330 O.2   363  TYR363     -0.2718
      5  CB        34.3140  140.9640   58.0830 C.3   363  TYR363      0.0548
      6  CG        35.3670  139.9010   58.0400 C.ar  363  TYR363     -0.0200
      7  CD1       36.7230  140.2470   57.8890 C.ar  363  TYR363     -0.0009
      8  CD2       35.0160  138.5310   58.1220 C.ar  363  TYR363     -0.0009
      9  CE1       37.6910  139.2800   57.8230 C.ar  363  TYR363      0.0417
     10  CE2       36.0000  137.5260   58.0750 C.ar  363  TYR363      0.0417
     11  CZ        37.3360  137.9150   57.9210 C.ar  363  TYR363      0.1957
     12  OH        38.3330  136.9640   57.8690 O.3   363  TYR363     -0.2866
     13  N         34.2310  139.9950   61.4620 N.am  364  LEU364     -0.1966
     14  CA        33.9640  138.8240   62.2790 C.3   364  LEU364      0.1728
     15  C         33.0120  139.0840   63.4490 C.2   364  LEU364      0.2616
     16  O         32.9980  140.1860   64.0280 O.2   364  LEU364     -0.2715
     17  CB        35.2830  138.3180   62.8430 C.3   364  LEU364      0.0311
     18  CG        36.3040  137.5950   61.9820 C.3   364  LEU364      0.0022
     19  CD1       37.4360  137.1770   62.8960 C.3   364  LEU364      0.0001
     20  CD2       35.6780  136.3700   61.3100 C.3   364  LEU364      0.0001
     21  N         32.2520  138.0770   63.8690 N.am  365  GLY365     -0.1955
     22  CA        31.3820  138.3200   65.0330 C.3   365  GLY365      0.1869
     23  C         31.8580  137.7100   66.3510 C.2   365  GLY365      0.2309
     24  O         32.2790  136.5300   66.3560 O.2   365  GLY365     -0.2863
     25  N         31.6570  133.8780   66.9790 N.3   368  ARG368     -0.1245
     26  CA        32.0920  132.8710   66.0100 C.3   368  ARG368      0.1563
     27  C         33.0360  131.8800   66.6300 C.2   368  ARG368      0.2260
     28  O         34.0410  132.2570   67.1850 O.2   368  ARG368     -0.2867
     29  CB        32.7910  133.5650   64.8470 C.3   368  ARG368      0.0307
     30  CG        33.5240  132.6780   63.8840 C.3   368  ARG368      0.0489
     31  CD        32.6920  132.3230   62.6850 C.3   368  ARG368      0.2205
     32  NE        33.5410  132.0600   61.5260 N.pl3 368  ARG368     -0.0865
     33  CZ        33.7990  132.9570   60.5820 C.cat 368  ARG368      0.5346
     34  NH1       33.2440  134.1650   60.6450 N.pl3 368  ARG368      0.1354
     35  NH2       34.6000  132.6420   59.5710 N.pl3 368  ARG368      0.1354
     36  N         36.0350  127.2700   63.5440 N.3   372  THR372     -0.1218
     37  CA        35.6000  127.5670   62.1770 C.3   372  THR372      0.1862
     38  C         36.3410  128.7390   61.5400 C.2   372  THR372      0.2287
     39  O         36.1660  129.0160   60.3530 O.2   372  THR372     -0.2866
     40  CB        34.0710  127.8040   62.0460 C.3   372  THR372      0.1770
     41  OG1       33.7200  129.0990   62.5740 O.3   372  THR372     -0.2211
     42  CG2       33.2730  126.6580   62.7050 C.3   372  THR372      0.0375
     43  N         43.0250  134.0680   59.8690 N.3   377  GLU377     -0.1245
     44  CA        42.2150  134.6820   60.8950 C.3   377  GLU377      0.1567
     45  C         42.7420  134.4480   62.3440 C.2   377  GLU377      0.2260
     46  O         43.3620  135.3180   62.9210 O.2   377  GLU377     -0.2867
     47  CB        40.7340  134.2830   60.7100 C.3   377  GLU377      0.0388
     48  CG        40.0310  134.8620   59.4460 C.3   377  GLU377      0.1160
     49  CD        38.9380  133.9660   58.8950 C.2   377  GLU377      0.3649
     50  OE1       38.9170  132.7620   59.1840 O.co2 377  GLU377     -0.2457
     51  OE2       38.0670  134.4470   58.1550 O.co2 377  GLU377     -0.2457
     52  N         25.5760  133.9500   55.1980 N.3   504  ASN504     -0.1225
     53  CA        26.5790  134.9370   55.6290 C.3   504  ASN504      0.1785
     54  C         26.4290  136.3120   54.8940 C.2   504  ASN504      0.2597
     55  O         25.4010  136.9660   55.0560 O.2   504  ASN504     -0.2718
     56  CB        27.9930  134.3610   55.5390 C.3   504  ASN504      0.1169
     57  CG        28.1230  132.9700   56.1860 C.2   504  ASN504      0.2627
     58  OD1       28.1010  132.8240   57.4120 O.2   504  ASN504     -0.2716
     59  ND2       28.2910  131.9500   55.3540 N.am  504  ASN504     -0.0877
     60  N         27.3950  136.7490   54.0770 N.am  505  ASN505     -0.1974
     61  CA        27.2510  138.0100   53.3290 C.3   505  ASN505      0.1688
     62  C         26.3070  137.9110   52.1890 C.2   505  ASN505      0.2292
     63  O         25.7220  138.8970   51.7980 O.2   505  ASN505     -0.2864
     64  CB        28.5340  138.3740   52.6290 C.3   505  ASN505      0.1181
     65  CG        29.6410  138.6390   53.5540 C.2   505  ASN505      0.2629
     66  OD1       30.7940  138.4430   53.1990 O.2   505  ASN505     -0.2716
     67  ND2       29.3220  139.1020   54.7590 N.am  505  ASN505     -0.0877
     68  N         39.9850  139.8410   52.1690 N.3   525  SER525     -0.1202
     69  CA        39.7850  138.9360   53.2670 C.3   525  SER525      0.2020
     70  C         38.4920  139.2370   54.0260 C.2   525  SER525      0.2619
     71  O         38.3670  140.2770   54.6970 O.2   525  SER525     -0.2717
     72  CB        40.9950  138.9760   54.1950 C.3   525  SER525      0.2103
     73  OG        41.2580  137.6590   54.6810 O.3   525  SER525     -0.2182
     74  N         37.5410  138.3160   53.9210 N.am  526  GLY526     -0.1942
     75  CA        36.2960  138.4420   54.6070 C.3   526  GLY526      0.2014
     76  C         35.1520  138.5550   53.6410 C.2   526  GLY526      0.2640
     77  O         34.0040  138.4370   54.0350 O.2   526  GLY526     -0.2714
     78  N         35.4620  138.7310   52.3660 N.am  527  SER527     -0.1935
     79  CA        34.4810  139.2030   51.3770 C.3   527  SER527      0.2055
     80  C         33.3700  138.2560   50.9530 C.2   527  SER527      0.2644
     81  O         32.3310  138.7330   50.4770 O.2   527  SER527     -0.2714
     82  CB        35.1930  139.7010   50.1200 C.3   527  SER527      0.2130
     83  OG        35.9430  138.6500   49.5360 O.3   527  SER527     -0.2179
     84  N         33.5810  136.9490   51.1000 N.am  528  GLY528     -0.1939
     85  CA        32.6110  135.9370   50.6500 C.3   528  GLY528      0.2014
     86  C         33.1360  134.6090   50.0980 C.2   528  GLY528      0.2639
     87  O         32.4540  133.5740   50.2100 O.2   528  GLY528     -0.2714
     88  N         34.3510  134.6460   49.5310 N.am  529  LYS529     -0.1963
     89  CA        34.9820  133.5520   48.7820 C.3   529  LYS529      0.1728
     90  C         34.7280  132.1520   49.3480 C.2   529  LYS529      0.2617
     91  O         34.2980  131.2240   48.6320 O.2   529  LYS529     -0.2715
     92  CB        36.4770  133.7930   48.6920 C.3   529  LYS529      0.0311
     93  CG        36.8260  135.1540   48.1480 C.3   529  LYS529      0.0038
     94  CD        38.3430  135.3480   47.9320 C.3   529  LYS529      0.0206
     95  CE        39.1330  135.4080   49.2110 C.3   529  LYS529      0.1093
     96  NZ        38.3650  136.0780   50.3120 N.3   529  LYS529     -0.1314
     97  N         34.9850  131.9890   50.6380 N.am  530  SER530     -0.1936
     98  CA        34.7910  130.6700   51.2090 C.3   530  SER530      0.2055
     99  C         33.2980  130.3140   51.2730 C.2   530  SER530      0.2643
    100  O         32.8710  129.3110   50.6740 O.2   530  SER530     -0.2714
    101  CB        35.5030  130.5310   52.5450 C.3   530  SER530      0.2130
    102  OG        35.0890  131.5760   53.4020 O.3   530  SER530     -0.2179
    103  N         32.5040  131.1490   51.9430 N.am  531  THR531     -0.1950
    104  CA        31.0730  130.8760   52.0580 C.3   531  THR531      0.1897
    105  C         30.5000  130.5650   50.6780 C.2   531  THR531      0.2313
    106  O         29.5850  129.7500   50.5590 O.2   531  THR531     -0.2863
    107  CB        30.2630  132.0270   52.7310 C.3   531  THR531      0.1794
    108  OG1       29.5220  132.7740   51.7470 O.3   531  THR531     -0.2208
    109  CG2       31.1740  132.9700   53.5310 C.3   531  THR531      0.0378
    110  N         31.7470  126.6620   51.1170 N.3   535  GLN535     -0.1245
    111  CA        30.4130  126.4400   51.6800 C.3   535  GLN535      0.1566
    112  C         29.3630  126.2840   50.5910 C.2   535  GLN535      0.2260
    113  O         29.1010  125.1610   50.1380 O.2   535  GLN535     -0.2867
    114  CB        30.0210  127.5280   52.6490 C.3   535  GLN535      0.0367
    115  CG        30.7180  127.4010   53.9480 C.3   535  GLN535      0.0905
    116  CD        30.1370  128.3310   54.9560 C.2   535  GLN535      0.2608
    117  OE1       29.0250  128.0890   55.5020 O.2   535  GLN535     -0.2717
    118  NE2       30.8500  129.4330   55.2090 N.am  535  GLN535     -0.0878
    119  N         27.4610  125.8900   64.1880 N.3   561  ASP561     -0.1225
    120  CA        28.3310  127.0790   64.0060 C.3   561  ASP561      0.1805
    121  C         28.4340  127.5880   62.5470 C.2   561  ASP561      0.2598
    122  O         28.9740  128.6750   62.3010 O.2   561  ASP561     -0.2718
    123  CB        29.7240  126.9340   64.6760 C.3   561  ASP561      0.1424
    124  CG        30.3260  125.5280   64.5510 C.2   561  ASP561      0.3668
    125  OD1       31.3430  125.2570   65.2310 O.co2 561  ASP561     -0.2456
    126  OD2       29.7920  124.6980   63.7840 O.co2 561  ASP561     -0.2456
    127  N         27.9060  126.7930   61.6060 N.am  562  HIS562     -0.1961
    128  CA        27.7590  127.1790   60.1830 C.3   562  HIS562      0.1787
    129  C         26.2670  127.3620   59.8100 C.2   562  HIS562      0.2620
    130  O         25.3780  127.1150   60.6350 O.2   562  HIS562     -0.2715
    131  CB        28.4490  126.1610   59.2440 C.3   562  HIS562      0.0785
    132  CG        29.9360  126.3710   59.0730 C.ar  562  HIS562      0.0821
    133  ND1       30.4970  126.8460   57.9000 N.ar  562  HIS562     -0.2267
    134  CD2       30.9780  126.1440   59.9150 C.ar  562  HIS562      0.1154
    135  CE1       31.8130  126.9120   58.0320 C.ar  562  HIS562      0.1986
    136  NE2       32.1310  126.4940   59.2450 N.ar  562  HIS562     -0.2212
    137  N         26.0040  127.7860   58.5720 N.am  563  THR563     -0.1951
    138  CA        24.6520  128.2180   58.1490 C.3   563  THR563      0.1897
    139  C         23.8620  127.2140   57.3050 C.2   563  THR563      0.2313
    140  O         24.4270  126.4600   56.5130 O.2   563  THR563     -0.2863
    141  CB        24.6950  129.5830   57.3790 C.3   563  THR563      0.1794
    142  OG1       23.5280  129.7220   56.5330 O.3   563  THR563     -0.2208
    143  CG2       26.0150  129.7000   56.5460 C.3   563  THR563      0.0378
    144  N         39.6840  129.0750   45.7090 N.3   782  VAL782     -0.1245
    145  CA        39.7890  130.4300   46.2120 C.3   782  VAL782      0.1561
    146  C         41.2730  130.7420   46.3060 C.2   782  VAL782      0.2260
    147  O         42.0790  129.8670   46.5600 O.2   782  VAL782     -0.2867
    148  CB        38.9960  130.6240   47.5080 C.3   782  VAL782      0.0252
    149  CG1       38.8590  129.2940   48.2270 C.3   782  VAL782      0.0019
    150  CG2       39.5890  131.7420   48.3820 C.3   782  VAL782      0.0019
    151  N         44.4950  133.8710   46.8320 N.3   784  HIS784     -0.1241
    152  CA        44.9590  135.0610   47.4750 C.3   784  HIS784      0.1621
    153  C         46.2370  135.4560   46.7630 C.2   784  HIS784      0.2264
    154  O         46.7500  136.5530   46.9580 O.2   784  HIS784     -0.2867
    155  CB        45.2490  134.7180   48.9370 C.3   784  HIS784      0.0745
    156  CG        44.0810  134.1120   49.6620 C.ar  784  HIS784      0.0817
    157  ND1       43.0130  134.8640   50.1400 N.ar  784  HIS784     -0.2268
    158  CD2       43.8110  132.8250   49.9980 C.ar  784  HIS784      0.1154
    159  CE1       42.1460  134.0640   50.7460 C.ar  784  HIS784      0.1986
    160  NE2       42.6100  132.8230   50.6760 N.ar  784  HIS784     -0.2212
    161  N         32.8790  141.2560   54.6090 N.3   803  GLY803     -0.1225
    162  CA        31.6910  141.2210   55.4650 C.3   803  GLY803      0.1811
    163  C         30.5360  142.0370   54.9560 C.2   803  GLY803      0.2280
    164  O         29.9770  141.7450   53.9100 O.2   803  GLY803     -0.2866
@<TRIPOS>BOND
     1   144   145    1
     2   145   146    1
     3   145   148    1
     4   146   147    2
     5   153   154    2
     6   153   152    1
     7   151   152    1
     8   152   155    1
     9   148   149    1
    10   148   150    1
    11    94    93    1
    12    94    95    1
    13    93    92    1
    14    91    90    2
    15    92    89    1
    16    89    90    1
    17    89    88    1
    18   155   156    1
    19    95    96    1
    20    90    97   am
    21    88    86   am
    22    83    82    1
    23   156   158   ar
    24   156   157   ar
    25   158   160   ar
    26    86    87    2
    27    86    85    1
    28    82    79    1
    29   113   112    2
    30   157   159   ar
    31    81    80    2
    32   106   105    2
    33   112   111    1
    34    97    98    1
    35    85    84    1
    36   100    99    2
    37   160   159   ar
    38   105   104    1
    39    80    84   am
    40    80    79    1
    41   110   111    1
    42    98    99    1
    43    98   101    1
    44    99   103   am
    45    79    78    1
    46   111   114    1
    47   108   107    1
    48    63    62    2
    49   103   104    1
    50   104   107    1
    51    68    69    1
    52    62    61    1
    53    78    76   am
    54   101   102    1
    55    64    61    1
    56    64    65    1
    57   114   115    1
    58   107   109    1
    59    66    65    2
    60    69    70    1
    61    69    72    1
    62    61    60    1
    63    65    67   am
    64    76    77    2
    65    76    75    1
    66   164   163    2
    67    74    70   am
    68    74    75    1
    69   115   116    1
    70    70    71    2
    71    60    54   am
    72    72    73    1
    73   161   162    1
    74    54    55    2
    75    54    53    1
    76   116   118   am
    77   116   117    2
    78   163   162    1
    79    52    53    1
    80    59    57   am
    81    56    53    1
    82    56    57    1
    83    57    58    2
    84   140   139    2
    85   142   141    1
    86   143   141    1
    87   139   138    1
    88   141   138    1
    89     9     7   ar
    90     9    11   ar
    91    12    11    1
    92     7     6   ar
    93   133   135   ar
    94   133   132   ar
    95    11    10   ar
    96   135   136   ar
    97     6     5    1
    98     6     8   ar
    99    10     8   ar
   100     5     2    1
   101   138   137    1
   102    51    49   ar
   103   137   129   am
   104    49    50   ar
   105    49    48    1
   106   132   131    1
   107   132   134   ar
   108   131   128    1
   109   136   134   ar
   110    48    47    1
   111     2     1    1
   112     2     3    1
   113    35    33    1
   114   129   128    1
   115   129   130    2
   116    43    44    1
   117     4     3    2
   118   128   127    1
   119    39    38    2
   120     3    13   am
   121    33    34    1
   122    33    32    2
   123    47    44    1
   124    44    45    1
   125    20    18    1
   126    13    14    1
   127    32    31    1
   128    38    37    1
   129   127   121   am
   130    18    17    1
   131    18    19    1
   132    40    37    1
   133    40    41    1
   134    40    42    1
   135    37    36    1
   136    14    17    1
   137    14    15    1
   138   122   121    2
   139    45    46    2
   140   121   120    1
   141    31    30    1
   142    15    21   am
   143    15    16    2
   144   126   124   ar
   145    21    22    1
   146    30    29    1
   147   120   119    1
   148   120   123    1
   149   124   123    1
   150   124   125   ar
   151    29    26    1
   152    22    23    1
   153    26    27    1
   154    26    25    1
   155    23    24    2
   156    27    28    2
