@<TRIPOS>MOLECULE
tmp/2vf8B00.pdb
 160 153 0 0 0
SMALL
GASTEIGER

@<TRIPOS>ATOM
      1  N         65.3340  118.6570   63.4650 N.3    17  HIS17      -0.1226
      2  CA        64.7380  117.5510   62.6640 C.3    17  HIS17       0.1752
      3  C         65.6370  117.0710   61.5220 C.2    17  HIS17       0.2596
      4  O         66.5190  116.1860   61.7200 O.2    17  HIS17      -0.2718
      5  CB        63.3560  117.8620   62.0830 C.3    17  HIS17       0.0759
      6  CG        62.2430  117.8490   63.1070 C.ar   17  HIS17       0.0818
      7  ND1       61.0440  118.5360   62.9280 N.ar   17  HIS17      -0.2268
      8  CD2       62.1550  117.2760   64.3410 C.ar   17  HIS17       0.1154
      9  CE1       60.2610  118.3720   63.9950 C.ar   17  HIS17       0.1986
     10  NE2       60.9060  117.6020   64.8640 N.ar   17  HIS17      -0.2212
     11  N         65.4130  117.6120   60.3120 N.am   18  ASN18      -0.1974
     12  CA        66.4290  117.4630   59.2720 C.3    18  ASN18       0.1688
     13  C         67.6300  118.3720   59.5290 C.2    18  ASN18       0.2292
     14  O         68.7780  117.9850   59.2470 O.2    18  ASN18      -0.2864
     15  CB        65.8930  117.6830   57.8600 C.3    18  ASN18       0.1181
     16  CG        65.2370  119.0220   57.6780 C.2    18  ASN18       0.2629
     17  OD1       64.9240  119.6830   58.6370 O.2    18  ASN18      -0.2716
     18  ND2       65.0070  119.4220   56.4390 N.am   18  ASN18      -0.0877
     19  N         61.5020  126.4250   50.8370 N.3    37  VAL37      -0.1231
     20  CA        60.4920  125.5880   50.1980 C.3    37  VAL37       0.1692
     21  C         59.8230  124.6300   51.3670 C.2    37  VAL37       0.2593
     22  O         60.4060  124.2090   52.4220 O.2    37  VAL37      -0.2718
     23  CB        61.1150  124.8080   49.2190 C.3    37  VAL37       0.0266
     24  CG1       60.4840  123.3830   48.8510 C.3    37  VAL37       0.0020
     25  CG2       61.5110  125.7730   48.1190 C.3    37  VAL37       0.0020
     26  N         58.5900  124.2030   51.3390 N.am   38  SER38      -0.1938
     27  CA        57.8820  123.2560   52.2080 C.3    38  SER38       0.2055
     28  C         58.7170  122.0780   52.4550 C.2    38  SER38       0.2644
     29  O         59.4980  121.7310   51.5240 O.2    38  SER38      -0.2714
     30  CB        56.5250  122.8130   51.4800 C.3    38  SER38       0.2130
     31  OG        55.9320  121.7080   52.3340 O.3    38  SER38      -0.2179
     32  N         59.0990  121.6480   53.7460 N.am   39  GLY39      -0.1939
     33  CA        60.1200  120.5830   53.9350 C.3    39  GLY39       0.2014
     34  C         61.5380  121.0570   54.2650 C.2    39  GLY39       0.2640
     35  O         62.3620  120.2680   54.6920 O.2    39  GLY39      -0.2714
     36  N         61.8540  122.3310   54.1000 N.am   40  SER40      -0.1935
     37  CA        63.2670  122.7340   54.2300 C.3    40  SER40       0.2055
     38  C         63.8130  122.7600   55.6640 C.2    40  SER40       0.2644
     39  O         65.0120  122.5090   55.8940 O.2    40  SER40      -0.2714
     40  CB        63.5330  124.0670   53.5300 C.3    40  SER40       0.2130
     41  OG        62.4500  125.0470   53.7750 O.3    40  SER40      -0.2179
     42  N         62.9200  123.0880   56.6080 N.am   41  GLY41      -0.1939
     43  CA        63.2130  123.1180   58.0360 C.3    41  GLY41       0.2014
     44  C         62.9870  124.4520   58.7210 C.2    41  GLY41       0.2639
     45  O         63.5420  124.6390   59.7720 O.2    41  GLY41      -0.2714
     46  N         62.2250  125.4060   58.1670 N.am   42  LYS42      -0.1963
     47  CA        62.1120  126.7450   58.8600 C.3    42  LYS42       0.1728
     48  C         61.2940  126.6350   60.1870 C.2    42  LYS42       0.2617
     49  O         61.6640  127.1790   61.2250 O.2    42  LYS42      -0.2715
     50  CB        61.6020  127.8880   57.9240 C.3    42  LYS42       0.0311
     51  CG        60.6100  127.4420   56.8420 C.3    42  LYS42       0.0038
     52  CD        60.1180  128.5710   55.9040 C.3    42  LYS42       0.0206
     53  CE        58.9250  128.0110   55.0430 C.3    42  LYS42       0.1093
     54  NZ        58.9370  126.4550   55.0500 N.3    42  LYS42      -0.1314
     55  N         60.1950  125.8740   60.1510 N.am   43  SER43      -0.1936
     56  CA        59.4500  125.4420   61.3620 C.3    43  SER43       0.2055
     57  C         60.3210  124.5780   62.2300 C.2    43  SER43       0.2643
     58  O         60.1390  124.5060   63.4420 O.2    43  SER43      -0.2714
     59  CB        58.2110  124.6080   61.0050 C.3    43  SER43       0.2130
     60  OG        58.4810  123.7750   59.8840 O.3    43  SER43      -0.2179
     61  N         61.2830  123.9050   61.6410 N.am   44  SER44      -0.1949
     62  CA        62.0930  123.1420   62.5420 C.3    44  SER44       0.1924
     63  C         63.0470  123.9710   63.3490 C.2    44  SER44       0.2314
     64  O         63.3740  123.6250   64.4740 O.2    44  SER44      -0.2863
     65  CB        62.7290  121.9250   61.9090 C.3    44  SER44       0.2116
     66  OG        61.9470  120.8290   62.3220 O.3    44  SER44      -0.2180
     67  N         51.5410  121.4880   65.9950 N.3    94  ARG94      -0.1245
     68  CA        51.1400  120.7870   64.7930 C.3    94  ARG94       0.1563
     69  C         49.8540  119.9870   64.8920 C.2    94  ARG94       0.2260
     70  O         48.8310  120.3800   64.3160 O.2    94  ARG94      -0.2867
     71  CB        52.2850  119.8910   64.3380 C.3    94  ARG94       0.0307
     72  CG        52.4020  119.7380   62.8250 C.3    94  ARG94       0.0489
     73  CD        53.0710  120.9330   62.1100 C.3    94  ARG94       0.2205
     74  NE        53.8730  120.4210   60.9930 N.pl3  94  ARG94      -0.0865
     75  CZ        54.7800  121.1070   60.3170 C.cat  94  ARG94       0.5346
     76  NH1       55.0130  122.3780   60.6170 N.pl3  94  ARG94       0.1354
     77  NH2       55.4560  120.5020   59.3450 N.pl3  94  ARG94       0.1354
     78  N         57.5840  132.3570   60.2220 N.3   430  VAL430     -0.1245
     79  CA        57.8260  131.5980   58.9750 C.3   430  VAL430      0.1561
     80  C         57.0130  132.1800   58.0390 C.2   430  VAL430      0.2260
     81  O         56.0600  132.7250   58.3470 O.2   430  VAL430     -0.2867
     82  CB        57.5660  130.0520   58.9970 C.3   430  VAL430      0.0252
     83  CG1       57.5480  129.4570   60.4650 C.3   430  VAL430      0.0019
     84  CG2       56.4390  129.5580   58.0750 C.3   430  VAL430      0.0019
     85  N         63.6700  118.1620   53.3670 N.3   451  GLY451     -0.1225
     86  CA        64.2050  117.0350   54.1010 C.3   451  GLY451      0.1811
     87  C         65.7160  116.9640   53.9870 C.2   451  GLY451      0.2280
     88  O         66.4120  117.9980   54.1420 O.2   451  GLY451     -0.2866
     89  N         59.9110  114.0900   50.5740 N.3   714  TYR714     -0.1227
     90  CA        60.6770  113.9850   51.8130 C.3   714  TYR714      0.1736
     91  C         59.9000  113.3950   52.9730 C.2   714  TYR714      0.2595
     92  O         60.5060  112.9730   53.9590 O.2   714  TYR714     -0.2718
     93  CB        61.1740  115.3770   52.2030 C.3   714  TYR714      0.0548
     94  CG        60.0550  116.3840   52.3120 C.ar  714  TYR714     -0.0200
     95  CD1       59.3900  116.5620   53.5050 C.ar  714  TYR714     -0.0009
     96  CD2       59.6500  117.1340   51.2190 C.ar  714  TYR714     -0.0009
     97  CE1       58.3530  117.4480   53.6150 C.ar  714  TYR714      0.0417
     98  CE2       58.6190  118.0290   51.3150 C.ar  714  TYR714      0.0417
     99  CZ        57.9650  118.1770   52.5190 C.ar  714  TYR714      0.1957
    100  OH        56.9060  119.0360   52.6720 O.3   714  TYR714     -0.2866
    101  N         58.5680  113.3910   52.8920 N.am  715  LEU715     -0.1966
    102  CA        57.7550  112.7450   53.9320 C.3   715  LEU715      0.1728
    103  C         57.9650  111.2370   53.9600 C.2   715  LEU715      0.2616
    104  O         58.2870  110.6070   52.9440 O.2   715  LEU715     -0.2715
    105  CB        56.2690  113.0520   53.7750 C.3   715  LEU715      0.0311
    106  CG        55.7710  114.5100   53.7800 C.3   715  LEU715      0.0022
    107  CD1       54.2600  114.5620   53.5820 C.3   715  LEU715      0.0001
    108  CD2       56.1480  115.3550   55.0440 C.3   715  LEU715      0.0001
    109  N         57.7840  110.6720   55.1470 N.am  716  ARG716     -0.1977
    110  CA        57.9830  109.2510   55.3900 C.3   716  ARG716      0.1597
    111  C         56.6600  108.4700   55.3380 C.2   716  ARG716      0.2287
    112  O         55.6150  108.9530   55.7960 O.2   716  ARG716     -0.2864
    113  CB        58.6980  109.0580   56.7330 C.3   716  ARG716      0.0334
    114  CG        60.1680  109.5860   56.7280 C.3   716  ARG716      0.0492
    115  CD        60.9310  109.4290   58.0620 C.3   716  ARG716      0.2205
    116  NE        60.2280  110.0350   59.1970 N.pl3 716  ARG716     -0.0865
    117  CZ        60.6040  111.1530   59.8240 C.cat 716  ARG716      0.5346
    118  NH1       61.6970  111.8180   59.4380 N.pl3 716  ARG716      0.1354
    119  NH2       59.8790  111.6100   60.8520 N.pl3 716  ARG716      0.1354
    120  N         55.0470  108.4430   58.5580 N.3   719  GLN719     -0.1245
    121  CA        55.1430  109.6850   59.3180 C.3   719  GLN719      0.1566
    122  C         53.7890  110.1050   59.8970 C.2   719  GLN719      0.2260
    123  O         52.9020  110.4440   59.1570 O.2   719  GLN719     -0.2867
    124  CB        55.7790  110.8170   58.4980 C.3   719  GLN719      0.0367
    125  CG        56.2260  111.9540   59.4150 C.3   719  GLN719      0.0905
    126  CD        57.1170  112.9750   58.7710 C.2   719  GLN719      0.2608
    127  OE1       57.3890  112.9310   57.5650 O.2   719  GLN719     -0.2717
    128  NE2       57.5950  113.9040   59.5790 N.am  719  GLN719     -0.0878
    129  N         52.2510  115.0910   62.4550 N.3   723  GLU723     -0.1231
    130  CA        53.4690  115.8890   62.2580 C.3   723  GLU723      0.1699
    131  C         53.3230  116.6590   60.9580 C.2   723  GLU723      0.2592
    132  O         54.1850  117.4780   60.5730 O.2   723  GLU723     -0.2718
    133  CB        54.7060  114.9920   62.1950 C.3   723  GLU723      0.0402
    134  CG        54.5890  113.6680   62.9580 C.3   723  GLU723      0.1161
    135  CD        55.9370  113.0050   63.2380 C.2   723  GLU723      0.3649
    136  OE1       56.2970  112.8780   64.4230 O.co2 723  GLU723     -0.2457
    137  OE2       56.6530  112.6070   62.2880 O.co2 723  GLU723     -0.2457
    138  N         52.2080  116.3780   60.2890 N.am  724  LEU724     -0.1966
    139  CA        51.9550  116.8630   58.9520 C.3   724  LEU724      0.1728
    140  C         51.1780  118.1640   58.9960 C.2   724  LEU724      0.2616
    141  O         50.2190  118.3170   59.7450 O.2   724  LEU724     -0.2715
    142  CB        51.2380  115.8090   58.1110 C.3   724  LEU724      0.0311
    143  CG        51.9570  114.4670   57.9550 C.3   724  LEU724      0.0022
    144  CD1       51.3340  113.5820   56.8640 C.3   724  LEU724      0.0001
    145  CD2       53.4000  114.7360   57.6580 C.3   724  LEU724      0.0001
    146  N         51.6240  119.0740   58.1380 N.am  725  SER725     -0.1950
    147  CA        51.3580  120.4920   58.1780 C.3   725  SER725      0.1924
    148  C         49.9550  120.9040   57.7250 C.2   725  SER725      0.2314
    149  O         49.4770  122.0140   58.0470 O.2   725  SER725     -0.2863
    150  CB        52.3500  121.1350   57.2210 C.3   725  SER725      0.2116
    151  OG        52.1020  120.6680   55.9090 O.3   725  SER725     -0.2180
    152  N         50.6290  119.7130   53.6120 N.3   728  GLU728     -0.1245
    153  CA        51.2380  118.4680   53.1880 C.3   728  GLU728      0.1567
    154  C         50.1380  117.4580   53.1510 C.2   728  GLU728      0.2260
    155  O         50.1650  116.5160   52.3760 O.2   728  GLU728     -0.2867
    156  CB        52.3420  118.0400   54.1630 C.3   728  GLU728      0.0388
    157  CG        53.6610  118.8590   54.0370 C.3   728  GLU728      0.1160
    158  CD        54.5730  118.8040   55.2740 C.2   728  GLU728      0.3649
    159  OE1       54.2100  118.1830   56.3020 O.co2 728  GLU728     -0.2457
    160  OE2       55.6700  119.4020   55.2210 O.co2 728  GLU728     -0.2457
@<TRIPOS>BOND
     1    25    23    1
     2    24    23    1
     3    23    20    1
     4    20    19    1
     5    20    21    1
     6    89    90    1
     7    96    98   ar
     8    96    94   ar
     9    98    99   ar
    10    26    21   am
    11    26    27    1
    12    21    22    2
    13    30    27    1
    14    30    31    1
    15    29    28    2
    16    90    93    1
    17    90    91    1
    18    93    94    1
    19    27    28    1
    20    94    95   ar
    21   155   154    2
    22    28    32   am
    23    99   100    1
    24    99    97   ar
    25   101    91   am
    26   101   102    1
    27   104   103    2
    28    91    92    2
    29   154   153    1
    30   153   152    1
    31   153   156    1
    32    85    86    1
    33    95    97   ar
    34    40    41    1
    35    40    37    1
    36   107   106    1
    37    32    33    1
    38   105   106    1
    39   105   102    1
    40   106   108    1
    41   102   103    1
    42    33    34    1
    43   103   109   am
    44    87    86    1
    45    87    88    2
    46   157   156    1
    47   157   158    1
    48    36    37    1
    49    36    34   am
    50    37    38    1
    51    34    35    2
    52    53    54    1
    53    53    52    1
    54   109   110    1
    55   160   158   ar
    56   158   159   ar
    57   111   110    1
    58   111   112    2
    59   110   113    1
    60    38    39    2
    61    38    42   am
    62    52    51    1
    63   151   150    1
    64    18    16   am
    65    42    43    1
    66   114   113    1
    67   114   115    1
    68    51    50    1
    69   144   143    1
    70   150   147    1
    71   127   126    2
    72   145   143    1
    73    16    15    1
    74    16    17    2
    75   148   149    2
    76   148   147    1
    77    15    12    1
    78    50    47    1
    79   143   142    1
    80    43    44    1
    81    80    81    2
    82    80    79    1
    83   115   116    1
    84    84    82    1
    85   142   139    1
    86   146   147    1
    87   146   140   am
    88    46    44   am
    89    46    47    1
    90   124   121    1
    91   124   125    1
    92   120   121    1
    93    44    45    2
    94   126   125    1
    95   126   128   am
    96    47    48    1
    97   139   140    1
    98   139   138    1
    99    79    82    1
   100    79    78    1
   101   140   141    2
   102    82    83    1
   103   123   122    2
   104   116   117    2
   105    14    13    2
   106    12    13    1
   107    12    11    1
   108   121   122    1
   109    77    75    1
   110   118   117    1
   111   117   119    1
   112    60    59    1
   113    55    48   am
   114    55    56    1
   115    48    49    2
   116   138   131   am
   117    11     3   am
   118    75    76    1
   119    75    74    2
   120   132   131    2
   121   131   130    1
   122    74    73    1
   123    59    56    1
   124    56    57    1
   125     3     4    2
   126     3     2    1
   127    61    57   am
   128    61    62    1
   129    65    66    1
   130    65    62    1
   131     5     2    1
   132     5     6    1
   133    73    72    1
   134   133   130    1
   135   133   134    1
   136    57    58    2
   137   130   129    1
   138   137   135   ar
   139    62    63    1
   140     2     1    1
   141    72    71    1
   142     7     6   ar
   143     7     9   ar
   144   134   135    1
   145     6     8   ar
   146   135   136   ar
   147    63    64    2
   148     9    10   ar
   149    70    69    2
   150    71    68    1
   151     8    10   ar
   152    68    69    1
   153    68    67    1
