@<TRIPOS>MOLECULE
tmp/2vf8A01.pdb
 133 124 0 0 0
SMALL
GASTEIGER

@<TRIPOS>ATOM
      1  N         78.3820  121.8400  101.1980 N.3   359  TYR359     -0.1227
      2  CA        78.1310  120.9460  102.3360 C.3   359  TYR359      0.1736
      3  C         76.8270  120.2070  102.2960 C.2   359  TYR359      0.2595
      4  O         76.7060  119.1930  103.0020 O.2   359  TYR359     -0.2718
      5  CB        78.1690  121.7040  103.6460 C.3   359  TYR359      0.0548
      6  CG        77.0640  122.7110  103.7690 C.ar  359  TYR359     -0.0200
      7  CD1       77.2240  124.0230  103.2630 C.ar  359  TYR359     -0.0009
      8  CD2       75.8680  122.3780  104.3990 C.ar  359  TYR359     -0.0009
      9  CE1       76.2390  124.9500  103.3800 C.ar  359  TYR359      0.0417
     10  CE2       74.8440  123.3030  104.4960 C.ar  359  TYR359      0.0417
     11  CZ        75.0370  124.5940  103.9820 C.ar  359  TYR359      0.1957
     12  OH        74.0200  125.5180  104.0560 O.3   359  TYR359     -0.2866
     13  N         75.8470  120.7000  101.5260 N.am  360  LEU360     -0.1966
     14  CA        74.5710  119.9890  101.3580 C.3   360  LEU360      0.1728
     15  C         74.8070  118.6850  100.6320 C.2   360  LEU360      0.2616
     16  O         75.7500  118.5630   99.8330 O.2   360  LEU360     -0.2715
     17  CB        73.5790  120.8270  100.5800 C.3   360  LEU360      0.0311
     18  CG        73.3810  122.2780  101.0950 C.3   360  LEU360      0.0022
     19  CD1       73.0500  123.2700   99.9760 C.3   360  LEU360      0.0001
     20  CD2       72.3660  122.4020  102.2260 C.3   360  LEU360      0.0001
     21  N         73.9970  117.6780  100.9500 N.am  361  GLY361     -0.1955
     22  CA        74.1030  116.3600  100.2920 C.3   361  GLY361      0.1869
     23  C         72.9890  116.3520   99.2930 C.2   361  GLY361      0.2309
     24  O         71.9620  116.8990   99.5770 O.2   361  GLY361     -0.2863
     25  N         69.3820  115.5740  100.2190 N.3   364  ARG364     -0.1245
     26  CA        68.8090  116.3570  101.3080 C.3   364  ARG364      0.1563
     27  C         67.4680  116.8850  100.8710 C.2   364  ARG364      0.2260
     28  O         67.2960  117.1970   99.7010 O.2   364  ARG364     -0.2867
     29  CB        69.7250  117.4890  101.7280 C.3   364  ARG364      0.0307
     30  CG        69.1530  118.5160  102.6990 C.3   364  ARG364      0.0489
     31  CD        69.3350  118.2260  104.2160 C.3   364  ARG364      0.2205
     32  NE        68.8360  119.3910  104.9400 N.pl3 364  ARG364     -0.0865
     33  CZ        69.6000  120.3830  105.4000 C.cat 364  ARG364      0.5346
     34  NH1       70.9270  120.3370  105.2930 N.pl3 364  ARG364      0.1354
     35  NH2       69.0350  121.4290  105.9830 N.pl3 364  ARG364      0.1354
     36  N         63.4800  120.5860  104.7830 N.3   368  THR368     -0.1218
     37  CA        64.4800  120.6570  105.8640 C.3   368  THR368      0.1862
     38  C         65.6170  121.6360  105.5240 C.2   368  THR368      0.2287
     39  O         66.5870  121.7860  106.2620 O.2   368  THR368     -0.2866
     40  CB        65.1180  119.2560  106.1350 C.3   368  THR368      0.1770
     41  OG1       66.1070  118.9440  105.1400 O.3   368  THR368     -0.2211
     42  CG2       64.1020  118.1750  106.1280 C.3   368  THR368      0.0375
     43  N         69.5550  128.9230  102.4440 N.3   373  GLU373     -0.1245
     44  CA        69.9580  127.6920  101.7530 C.3   373  GLU373      0.1567
     45  C         69.1730  127.4380  100.4690 C.2   373  GLU373      0.2260
     46  O         69.7570  127.2740   99.4030 O.2   373  GLU373     -0.2867
     47  CB        69.8030  126.4810  102.6690 C.3   373  GLU373      0.0388
     48  CG        71.1060  125.9910  103.2530 C.3   373  GLU373      0.1160
     49  CD        70.9020  125.2600  104.5550 C.2   373  GLU373      0.3649
     50  OE1       69.7340  124.9370  104.9120 O.co2 373  GLU373     -0.2457
     51  OE2       71.9240  125.0060  105.2160 O.co2 373  GLU373     -0.2457
     52  N         75.3300  114.5270  112.4820 N.3   497  ASN497     -0.1225
     53  CA        75.7560  115.2030  111.2820 C.3   497  ASN497      0.1785
     54  C         77.1970  115.5060  111.4450 C.2   497  ASN497      0.2597
     55  O         77.9470  114.7250  111.9960 O.2   497  ASN497     -0.2718
     56  CB        75.0500  116.5610  111.1450 C.3   497  ASN497      0.1169
     57  CG        73.6110  116.4340  110.7800 C.2   497  ASN497      0.2627
     58  OD1       73.2080  115.4460  110.1830 O.2   497  ASN497     -0.2716
     59  ND2       72.8170  117.4450  111.1220 N.am  497  ASN497     -0.0877
     60  N         77.5430  116.6600  110.8890 N.am  498  ASN498     -0.1974
     61  CA        78.6230  117.5470  111.2700 C.3   498  ASN498      0.1688
     62  C         79.2910  117.2990  112.6140 C.2   498  ASN498      0.2292
     63  O         80.4440  116.8750  112.6650 O.2   498  ASN498     -0.2864
     64  CB        78.0250  118.9290  111.3040 C.3   498  ASN498      0.1181
     65  CG        78.9440  119.9230  110.7850 C.2   498  ASN498      0.2629
     66  OD1       78.6860  121.1270  110.8260 O.2   498  ASN498     -0.2716
     67  ND2       80.0630  119.4410  110.2660 N.am  498  ASN498     -0.0877
     68  N         77.8630  129.8130  107.5060 N.3   518  SER518     -0.1202
     69  CA        76.6570  129.0750  107.1400 C.3   518  SER518      0.2020
     70  C         76.9450  127.6160  106.8170 C.2   518  SER518      0.2619
     71  O         77.7660  127.3280  105.9600 O.2   518  SER518     -0.2717
     72  CB        75.9840  129.7630  105.9750 C.3   518  SER518      0.2103
     73  OG        74.5970  129.7610  106.2300 O.3   518  SER518     -0.2182
     74  N         76.3020  126.6960  107.5200 N.am  519  GLY519     -0.1956
     75  CA        76.6070  125.2590  107.3480 C.3   519  GLY519      0.1869
     76  C         77.6460  124.7050  108.3360 C.2   519  GLY519      0.2309
     77  O         77.9720  123.4920  108.3300 O.2   519  GLY519     -0.2863
     78  N         77.3370  124.5880  111.5120 N.3   521  GLY521     -0.1210
     79  CA        76.6170  123.6260  112.3490 C.3   521  GLY521      0.1956
     80  C         75.8030  124.2240  113.4660 C.2   521  GLY521      0.2612
     81  O         75.4250  123.5250  114.4260 O.2   521  GLY521     -0.2717
     82  N         75.5140  125.5120  113.3780 N.am  522  LYS522     -0.1965
     83  CA        74.6850  126.1010  114.4200 C.3   522  LYS522      0.1728
     84  C         73.4250  125.2590  114.7210 C.2   522  LYS522      0.2617
     85  O         73.1190  124.9060  115.8540 O.2   522  LYS522     -0.2715
     86  CB        74.2970  127.5190  114.0180 C.3   522  LYS522      0.0311
     87  CG        75.5020  128.3990  113.8700 C.3   522  LYS522      0.0038
     88  CD        75.1870  129.6710  113.0950 C.3   522  LYS522      0.0206
     89  CE        75.4520  129.4580  111.6160 C.3   522  LYS522      0.1093
     90  NZ        76.7320  128.7140  111.4950 N.3   522  LYS522     -0.1314
     91  N         72.7120  124.9040  113.6720 N.am  523  SER523     -0.1936
     92  CA        71.3300  124.5690  113.8590 C.3   523  SER523      0.2055
     93  C         71.2080  123.1540  114.2970 C.2   523  SER523      0.2643
     94  O         70.2120  122.8080  114.9430 O.2   523  SER523     -0.2714
     95  CB        70.5540  124.7920  112.5740 C.3   523  SER523      0.2130
     96  OG        71.3810  124.3210  111.5250 O.3   523  SER523     -0.2179
     97  N         72.1870  122.3180  113.9590 N.am  524  THR524     -0.1950
     98  CA        72.0280  120.9530  114.3970 C.3   524  THR524      0.1897
     99  C         72.5060  120.8410  115.8320 C.2   524  THR524      0.2313
    100  O         72.1510  119.8830  116.5300 O.2   524  THR524     -0.2863
    101  CB        72.7340  119.9160  113.5780 C.3   524  THR524      0.1794
    102  OG1       73.9630  119.6130  114.2300 O.3   524  THR524     -0.2208
    103  CG2       72.9790  120.3410  112.1520 C.3   524  THR524      0.0378
    104  N         68.5550  121.5100  116.7710 N.3   528  GLN528     -0.1245
    105  CA        68.3060  120.0530  116.7390 C.3   528  GLN528      0.1566
    106  C         68.6920  119.3430  118.0320 C.2   528  GLN528      0.2260
    107  O         67.8170  119.0330  118.8290 O.2   528  GLN528     -0.2867
    108  CB        68.9200  119.3820  115.4990 C.3   528  GLN528      0.0367
    109  CG        68.1830  119.7580  114.2480 C.3   528  GLN528      0.0905
    110  CD        68.9790  119.6020  112.9980 C.2   528  GLN528      0.2608
    111  OE1       69.5210  118.5320  112.7120 O.2   528  GLN528     -0.2717
    112  NE2       69.0300  120.6750  112.2050 N.am  528  GLN528     -0.0878
    113  N         70.6740  131.3050  117.7580 N.3   753  VAL753     -0.1245
    114  CA        71.4860  131.2060  116.5060 C.3   753  VAL753      0.1561
    115  C         71.5240  132.5510  115.7370 C.2   753  VAL753      0.2260
    116  O         70.4900  133.1440  115.4990 O.2   753  VAL753     -0.2867
    117  CB        70.9800  130.0650  115.5830 C.3   753  VAL753      0.0252
    118  CG1       71.6230  130.1560  114.2420 C.3   753  VAL753      0.0019
    119  CG2       71.3110  128.7000  116.1660 C.3   753  VAL753      0.0019
    120  N         73.4670  135.2290  112.6650 N.3   755  HIS755     -0.1241
    121  CA        74.4650  135.6370  111.6680 C.3   755  HIS755      0.1621
    122  C         74.6910  137.1520  111.6610 C.2   755  HIS755      0.2264
    123  O         75.7370  137.6200  111.2880 O.2   755  HIS755     -0.2867
    124  CB        74.0770  135.1540  110.2700 C.3   755  HIS755      0.0745
    125  CG        73.3520  133.8430  110.2600 C.ar  755  HIS755      0.0817
    126  ND1       73.9890  132.6320  110.4120 N.ar  755  HIS755     -0.2268
    127  CD2       72.0420  133.5540  110.0940 C.ar  755  HIS755      0.1154
    128  CE1       73.0990  131.6560  110.3540 C.ar  755  HIS755      0.1986
    129  NE2       71.9090  132.1890  110.1700 N.ar  755  HIS755     -0.2212
    130  N         80.4890  122.1820  106.5620 N.3   774  GLY774     -0.1225
    131  CA        80.4680  120.7710  106.2070 C.3   774  GLY774      0.1811
    132  C         81.4620  119.9970  107.0050 C.2   774  GLY774      0.2280
    133  O         81.5470  120.1590  108.2130 O.2   774  GLY774     -0.2866
@<TRIPOS>BOND
     1    23    24    2
     2    23    22    1
     3    46    45    2
     4    28    27    2
     5    16    15    2
     6    19    18    1
     7    25    26    1
     8    22    21    1
     9    45    44    1
    10    17    18    1
    11    17    14    1
    12    15    21   am
    13    15    14    1
    14    27    26    1
    15    18    20    1
    16     1     2    1
    17    26    29    1
    18    14    13    1
    19    13     3   am
    20    29    30    1
    21    44    43    1
    22    44    47    1
    23     3     2    1
    24     3     4    2
    25     2     5    1
    26    47    48    1
    27    30    31    1
    28    48    49    1
    29     7     9   ar
    30     7     6   ar
    31     9    11   ar
    32     5     6    1
    33     6     8   ar
    34    11    12    1
    35    11    10   ar
    36    31    32    1
    37     8    10   ar
    38    49    50   ar
    39    49    51   ar
    40    36    37    1
    41    32    33    2
    42    41    40    1
    43    34    33    1
    44    33    35    1
    45    38    37    1
    46    38    39    2
    47    37    40    1
    48    71    70    2
    49    72    73    1
    50    72    69    1
    51    42    40    1
    52   131   130    1
    53   131   132    1
    54    70    69    1
    55    70    74   am
    56   132   133    2
    57    69    68    1
    58    75    74    1
    59    75    76    1
    60    77    76    2
    61   127   129   ar
    62   127   125   ar
    63   129   128   ar
    64    58    57    2
    65   125   124    1
    66   125   126   ar
    67    67    65   am
    68   124   121    1
    69   128   126   ar
    70    57    59   am
    71    57    56    1
    72    65    66    2
    73    65    64    1
    74    60    61    1
    75    60    54   am
    76    56    53    1
    77    61    64    1
    78    61    62    1
    79    53    54    1
    80    53    52    1
    81   123   122    2
    82    54    55    2
    83    90    89    1
    84    78    79    1
    85    96    95    1
    86    89    88    1
    87   122   121    1
    88   121   120    1
    89   103   101    1
    90   112   110   am
    91    79    80    1
    92    95    92    1
    93    62    63    2
    94   111   110    2
    95   110   109    1
    96    88    87    1
    97    82    80   am
    98    82    83    1
    99    80    81    2
   100   101   102    1
   101   101    98    1
   102    91    92    1
   103    91    84   am
   104    92    93    1
   105    87    86    1
   106    97    93   am
   107    97    98    1
   108    86    83    1
   109   118   117    1
   110   109   108    1
   111    93    94    2
   112    98    99    1
   113    83    84    1
   114    84    85    2
   115   108   105    1
   116   116   115    2
   117   117   119    1
   118   117   114    1
   119   115   114    1
   120    99   100    2
   121   114   113    1
   122   105   104    1
   123   105   106    1
   124   106   107    2
