@<TRIPOS>MOLECULE
tmp/2vfaB00.pdb
 83 78 0 0 0
SMALL
GASTEIGER

@<TRIPOS>ATOM
      1  N          3.0880  -42.7730  -56.8070 N.3    65  LYS65      -0.1245
      2  CA         3.0320  -41.7810  -55.7430 C.3    65  LYS65       0.1561
      3  C          3.2110  -42.4920  -54.4090 C.2    65  LYS65       0.2260
      4  O          2.2400  -42.9090  -53.7690 O.2    65  LYS65      -0.2867
      5  CB         1.7240  -40.9900  -55.7990 C.3    65  LYS65       0.0271
      6  CG         1.7010  -39.9320  -56.8880 C.3    65  LYS65       0.0035
      7  CD         0.3280  -39.3090  -57.0310 C.3    65  LYS65       0.0206
      8  CE         0.3360  -38.2150  -58.0830 C.3    65  LYS65       0.1093
      9  NZ        -0.9540  -37.4760  -58.1110 N.3    65  LYS65      -0.1314
     10  N         -3.5190  -43.9320  -55.8480 N.3   122  ASP122     -0.1225
     11  CA        -3.9360  -43.9240  -54.4470 C.3   122  ASP122      0.1805
     12  C         -5.0300  -42.8910  -54.1860 C.2   122  ASP122      0.2597
     13  O         -6.1320  -43.2330  -53.7430 O.2   122  ASP122     -0.2718
     14  CB        -2.7420  -43.6410  -53.5320 C.3   122  ASP122      0.1424
     15  CG        -1.7660  -44.7990  -53.4630 C.2   122  ASP122      0.3668
     16  OD1       -0.5420  -44.5390  -53.5090 O.co2 122  ASP122     -0.2456
     17  OD2       -2.2170  -45.9640  -53.3600 O.co2 122  ASP122     -0.2456
     18  N         -4.7190  -41.6290  -54.4760 N.am  123  ILE123     -0.1980
     19  CA        -5.5840  -40.5150  -54.1130 C.3   123  ILE123      0.1595
     20  C         -5.6690  -39.4510  -55.2130 C.2   123  ILE123      0.2287
     21  O         -4.6490  -38.9800  -55.7260 O.2   123  ILE123     -0.2864
     22  CB        -5.1580  -39.8980  -52.7430 C.3   123  ILE123      0.0276
     23  CG1       -6.1400  -38.8150  -52.2870 C.3   123  ILE123      0.0022
     24  CG2       -3.7140  -39.3860  -52.7870 C.3   123  ILE123      0.0022
     25  CD1       -6.0680  -38.5100  -50.7990 C.3   123  ILE123      0.0001
     26  N         -6.8080  -35.6650  -55.8160 N.3   125  ASP125     -0.1239
     27  CA        -7.2080  -34.3870  -55.2290 C.3   125  ASP125      0.1674
     28  C         -7.6120  -33.3820  -56.3140 C.2   125  ASP125      0.2266
     29  O         -8.8020  -33.1300  -56.5140 O.2   125  ASP125     -0.2867
     30  CB        -6.1540  -33.8210  -54.2500 C.3   125  ASP125      0.1410
     31  CG        -4.7290  -33.8720  -54.7940 C.2   125  ASP125      0.3668
     32  OD1       -3.8610  -33.1690  -54.2320 O.co2 125  ASP125     -0.2456
     33  OD2       -4.4620  -34.6090  -55.7690 O.co2 125  ASP125     -0.2456
     34  N        -10.2650  -36.6970  -52.5300 N.3   153  LYS153     -0.1245
     35  CA       -10.4550  -35.5930  -51.6020 C.3   153  LYS153      0.1561
     36  C        -11.4270  -34.5850  -52.1870 C.2   153  LYS153      0.2260
     37  O        -11.4360  -34.3460  -53.3960 O.2   153  LYS153     -0.2867
     38  CB        -9.1280  -34.9050  -51.3050 C.3   153  LYS153      0.0271
     39  CG        -8.3370  -35.5260  -50.1800 C.3   153  LYS153      0.0035
     40  CD        -7.1280  -34.6710  -49.8820 C.3   153  LYS153      0.0206
     41  CE        -6.3680  -35.1870  -48.6900 C.3   153  LYS153      0.1093
     42  NZ        -5.0620  -34.4870  -48.5510 N.3   153  LYS153     -0.1314
     43  N         -5.4370  -33.7700  -44.4980 N.3   174  PHE174     -0.1227
     44  CA        -4.3090  -34.6330  -44.8520 C.3   174  PHE174      0.1736
     45  C         -4.3480  -35.9290  -44.0510 C.2   174  PHE174      0.2595
     46  O         -4.4340  -35.9060  -42.8190 O.2   174  PHE174     -0.2718
     47  CB        -2.9790  -33.9060  -44.6330 C.3   174  PHE174      0.0547
     48  CG        -1.7770  -34.6850  -45.0930 C.ar  174  PHE174     -0.0202
     49  CD1       -1.4170  -34.7060  -46.4380 C.ar  174  PHE174     -0.0042
     50  CD2       -0.9970  -35.3910  -44.1800 C.ar  174  PHE174     -0.0042
     51  CE1       -0.3000  -35.4220  -46.8670 C.ar  174  PHE174     -0.0003
     52  CE2        0.1220  -36.1140  -44.5990 C.ar  174  PHE174     -0.0003
     53  CZ         0.4700  -36.1310  -45.9440 C.ar  174  PHE174     -0.0000
     54  N         -4.2830  -37.0530  -44.7620 N.am  175  VAL175     -0.1966
     55  CA        -4.4450  -38.3700  -44.1500 C.3   175  VAL175      0.1727
     56  C         -3.2440  -39.2920  -44.3490 C.2   175  VAL175      0.2616
     57  O         -2.5650  -39.2310  -45.3700 O.2   175  VAL175     -0.2715
     58  CB        -5.7360  -39.0780  -44.6410 C.3   175  VAL175      0.0290
     59  CG1       -6.9650  -38.3930  -44.0830 C.3   175  VAL175      0.0023
     60  CG2       -5.8010  -39.1230  -46.1620 C.3   175  VAL175      0.0023
     61  N         -2.9910  -40.1410  -43.3560 N.am  176  VAL176     -0.1977
     62  CA        -1.8960  -41.1150  -43.4120 C.3   176  VAL176      0.1596
     63  C         -2.3920  -42.5070  -43.0320 C.2   176  VAL176      0.2287
     64  O         -3.4650  -42.6500  -42.4420 O.2   176  VAL176     -0.2864
     65  CB        -0.7030  -40.7260  -42.4900 C.3   176  VAL176      0.0276
     66  CG1       -0.0290  -39.4500  -42.9790 C.3   176  VAL176      0.0022
     67  CG2       -1.1490  -40.5960  -41.0340 C.3   176  VAL176      0.0022
     68  N         -1.0950  -44.7010  -48.0030 N.3   180  LEU180     -0.1231
     69  CA        -0.8130  -43.2730  -48.0880 C.3   180  LEU180      0.1693
     70  C          0.5820  -42.9410  -47.5700 C.2   180  LEU180      0.2592
     71  O          0.9110  -43.2020  -46.4080 O.2   180  LEU180     -0.2718
     72  CB        -1.8760  -42.4510  -47.3540 C.3   180  LEU180      0.0284
     73  CG        -3.3170  -42.6520  -47.8160 C.3   180  LEU180      0.0019
     74  CD1       -4.1380  -43.2390  -46.6840 C.3   180  LEU180      0.0001
     75  CD2       -3.9030  -41.3340  -48.2560 C.3   180  LEU180      0.0001
     76  N          1.3880  -42.3700  -48.4610 N.am  181  ASP181     -0.1974
     77  CA         2.7720  -42.0140  -48.1760 C.3   181  ASP181      0.1709
     78  C          2.8610  -40.8840  -47.1570 C.2   181  ASP181      0.2293
     79  O          2.1450  -39.8870  -47.2490 O.2   181  ASP181     -0.2864
     80  CB         3.4910  -41.6200  -49.4760 C.3   181  ASP181      0.1436
     81  CG         4.8870  -41.0590  -49.2360 C.2   181  ASP181      0.3671
     82  OD1        5.7070  -41.7340  -48.5750 O.co2 181  ASP181     -0.2456
     83  OD2        5.1650  -39.9410  -49.7200 O.co2 181  ASP181     -0.2456
@<TRIPOS>BOND
     1     9     8    1
     2     8     7    1
     3     7     6    1
     4     6     5    1
     5     1     2    1
     6    29    28    2
     7    28    27    1
     8    10    11    1
     9    26    27    1
    10     5     2    1
    11    33    31   ar
    12     2     3    1
    13    21    20    2
    14    27    30    1
    15    20    19    1
    16    31    30    1
    17    31    32   ar
    18    18    12   am
    19    18    19    1
    20    11    12    1
    21    11    14    1
    22     3     4    2
    23    12    13    2
    24    19    22    1
    25    14    15    1
    26    16    15   ar
    27    15    17   ar
    28    37    36    2
    29    24    22    1
    30    22    23    1
    31    34    35    1
    32    23    25    1
    33    36    35    1
    34    35    38    1
    35    38    39    1
    36    39    40    1
    37    40    41    1
    38    83    81   ar
    39    80    81    1
    40    80    77    1
    41    81    82   ar
    42    41    42    1
    43    76    77    1
    44    76    70   am
    45    75    73    1
    46    77    78    1
    47    69    68    1
    48    69    70    1
    49    69    72    1
    50    73    72    1
    51    73    74    1
    52    70    71    2
    53    79    78    2
    54    51    49   ar
    55    51    53   ar
    56    49    48   ar
    57    60    58    1
    58    53    52   ar
    59    57    56    2
    60    48    47    1
    61    48    50   ar
    62    44    47    1
    63    44    43    1
    64    44    45    1
    65    54    55    1
    66    54    45   am
    67    58    55    1
    68    58    59    1
    69    52    50   ar
    70    56    55    1
    71    56    61   am
    72    45    46    2
    73    62    61    1
    74    62    63    1
    75    62    65    1
    76    63    64    2
    77    66    65    1
    78    65    67    1
