@<TRIPOS>MOLECULE
tmp/2vfiA00.pdb
 101 95 0 0 0
SMALL
GASTEIGER

@<TRIPOS>ATOM
      1  N         18.0060  -14.0960   27.4100 N.3     8  ASN8       -0.1240
      2  CA        17.5740  -13.0660   26.4680 C.3     8  ASN8        0.1653
      3  C         16.3840  -13.5830   25.6690 C.2     8  ASN8        0.2266
      4  O         16.5510  -14.3140   24.6880 O.2     8  ASN8       -0.2867
      5  CB        18.7270  -12.6540   25.5410 C.3     8  ASN8        0.1155
      6  CG        18.3720  -11.4830   24.6220 C.2     8  ASN8        0.2627
      7  OD1       17.2710  -10.9290   24.6750 O.2     8  ASN8       -0.2716
      8  ND2       19.3190  -11.1030   23.7720 N.am    8  ASN8       -0.0877
      9  N         14.4830  -11.9610   23.7910 N.3    10  LYS10      -0.1245
     10  CA        14.3740  -11.2000   22.5380 C.3    10  LYS10       0.1561
     11  C         12.9400  -10.7050   22.3090 C.2    10  LYS10       0.2260
     12  O         12.2450  -10.3760   23.2720 O.2    10  LYS10      -0.2867
     13  CB        14.9260  -12.0030   21.3510 C.3    10  LYS10       0.0271
     14  CG        16.3770  -12.4210   21.5470 C.3    10  LYS10       0.0035
     15  CD        16.9560  -13.1360   20.3470 C.3    10  LYS10       0.0206
     16  CE        18.4450  -13.3460   20.5450 C.3    10  LYS10       0.1093
     17  NZ        19.1270  -13.8760   19.3360 N.3    10  LYS10      -0.1314
     18  N         24.0990   -5.5610   21.5970 N.3    93  HIS93      -0.1241
     19  CA        23.6940   -6.8400   21.0300 C.3    93  HIS93       0.1621
     20  C         23.7980   -6.8220   19.5090 C.2    93  HIS93       0.2264
     21  O         23.4890   -5.8150   18.8690 O.2    93  HIS93      -0.2867
     22  CB        22.2750   -7.2180   21.4580 C.3    93  HIS93       0.0745
     23  CG        21.9440   -8.6550   21.2070 C.ar   93  HIS93       0.0817
     24  ND1       21.5130   -9.1160   19.9820 N.ar   93  HIS93      -0.2268
     25  CD2       22.0050   -9.7380   22.0160 C.ar   93  HIS93       0.1154
     26  CE1       21.3160  -10.4200   20.0490 C.ar   93  HIS93       0.1986
     27  NE2       21.6040  -10.8220   21.2740 N.ar   93  HIS93      -0.2212
     28  N         29.8410  -12.8270   21.7850 N.3   163  GLU163     -0.1245
     29  CA        28.8640  -13.4430   20.8990 C.3   163  GLU163      0.1567
     30  C         29.3340  -13.3990   19.4450 C.2   163  GLU163      0.2260
     31  O         29.0650  -12.4280   18.7320 O.2   163  GLU163     -0.2867
     32  CB        27.4690  -12.8180   21.0690 C.3   163  GLU163      0.0388
     33  CG        27.4540  -11.3030   21.2540 C.3   163  GLU163      0.1160
     34  CD        26.1160  -10.6750   20.9120 C.2   163  GLU163      0.3649
     35  OE1       26.1180   -9.6180   20.2510 O.co2 163  GLU163     -0.2457
     36  OE2       25.0650  -11.2280   21.2970 O.co2 163  GLU163     -0.2457
     37  N         25.1910  -16.9580   16.4860 N.3   168  ILE168     -0.1231
     38  CA        23.9030  -16.4850   17.0020 C.3   168  ILE168      0.1692
     39  C         22.7150  -16.9800   16.1690 C.2   168  ILE168      0.2592
     40  O         22.5270  -16.5690   15.0200 O.2   168  ILE168     -0.2718
     41  CB        23.8800  -14.9370   17.1430 C.3   168  ILE168      0.0266
     42  CG1       24.9930  -14.4780   18.0920 C.3   168  ILE168      0.0019
     43  CG2       22.5140  -14.4500   17.6390 C.3   168  ILE168      0.0020
     44  CD1       25.4480  -13.0530   17.8750 C.3   168  ILE168      0.0001
     45  N         21.9310  -17.8780   16.7670 N.am  169  GLY169     -0.1957
     46  CA        20.6990  -18.3990   16.1680 C.3   169  GLY169      0.1869
     47  C         20.8710  -19.2850   14.9460 C.2   169  GLY169      0.2309
     48  O         19.9010  -19.5660   14.2370 O.2   169  GLY169     -0.2863
     49  N         27.8950  -16.2150   24.2190 N.3   207  GLY207     -0.1210
     50  CA        26.6090  -16.2050   23.5360 C.3   207  GLY207      0.1956
     51  C         26.7500  -16.7640   22.1330 C.2   207  GLY207      0.2612
     52  O         27.7420  -16.5070   21.4550 O.2   207  GLY207     -0.2717
     53  N         25.7640  -17.5410   21.6980 N.am  208  GLY208     -0.1942
     54  CA        25.7810  -18.1020   20.3520 C.3   208  GLY208      0.2014
     55  C         25.4690  -19.5820   20.3150 C.2   208  GLY208      0.2640
     56  O         26.3750  -20.4160   20.2530 O.2   208  GLY208     -0.2714
     57  N         24.1760  -19.8960   20.3430 N.am  209  SER209     -0.1935
     58  CA        23.6700  -21.2690   20.2870 C.3   209  SER209      0.2055
     59  C         24.1040  -22.1210   21.4860 C.2   209  SER209      0.2642
     60  O         24.6730  -23.2040   21.3260 O.2   209  SER209     -0.2714
     61  CB        24.0240  -21.9420   18.9520 C.3   209  SER209      0.2130
     62  OG        23.5350  -21.1880   17.8540 O.3   209  SER209     -0.2179
     63  N         23.8310  -21.6140   22.6870 N.am  210  VAL210     -0.1977
     64  CA        23.9710  -22.4000   23.9090 C.3   210  VAL210      0.1596
     65  C         22.6950  -23.2200   24.0830 C.2   210  VAL210      0.2287
     66  O         21.5870  -22.6820   24.0080 O.2   210  VAL210     -0.2864
     67  CB        24.2120  -21.5060   25.1570 C.3   210  VAL210      0.0276
     68  CG1       24.2390  -22.3380   26.4390 C.3   210  VAL210      0.0022
     69  CG2       25.5030  -20.7180   25.0140 C.3   210  VAL210      0.0022
     70  N         24.8250  -15.9240   27.7330 N.3   228  LEU228     -0.1231
     71  CA        23.6550  -15.1680   27.3170 C.3   228  LEU228      0.1693
     72  C         22.8830  -16.0760   26.3660 C.2   228  LEU228      0.2592
     73  O         23.2920  -16.2860   25.2220 O.2   228  LEU228     -0.2718
     74  CB        24.0570  -13.8560   26.6330 C.3   228  LEU228      0.0284
     75  CG        22.9440  -12.9090   26.1690 C.3   228  LEU228      0.0019
     76  CD1       22.1440  -12.3500   27.3380 C.3   228  LEU228      0.0001
     77  CD2       23.5270  -11.7800   25.3430 C.3   228  LEU228      0.0001
     78  N         21.7790  -16.6330   26.8580 N.am  229  VAL229     -0.1966
     79  CA        21.0230  -17.6470   26.1220 C.3   229  VAL229      0.1727
     80  C         19.8470  -17.0270   25.3670 C.2   229  VAL229      0.2617
     81  O         19.0470  -16.2840   25.9420 O.2   229  VAL229     -0.2715
     82  CB        20.5250  -18.7840   27.0550 C.3   229  VAL229      0.0290
     83  CG1       19.9910  -19.9570   26.2420 C.3   229  VAL229      0.0023
     84  CG2       21.6430  -19.2540   27.9790 C.3   229  VAL229      0.0023
     85  N         19.7590  -17.3420   24.0760 N.am  230  GLY230     -0.1940
     86  CA        18.6930  -16.8430   23.2160 C.3   230  GLY230      0.2014
     87  C         17.5300  -17.8110   23.1240 C.2   230  GLY230      0.2639
     88  O         16.7080  -17.8910   24.0390 O.2   230  GLY230     -0.2714
     89  N         17.4730  -18.5490   22.0170 N.am  231  ASN231     -0.1958
     90  CA        16.3700  -19.4730   21.7260 C.3   231  ASN231      0.1819
     91  C         16.0720  -20.4860   22.8360 C.2   231  ASN231      0.2621
     92  O         14.9080  -20.7310   23.1600 O.2   231  ASN231     -0.2715
     93  CB        16.6210  -20.1990   20.3950 C.3   231  ASN231      0.1195
     94  CG        15.4700  -21.1120   19.9920 C.2   231  ASN231      0.2630
     95  OD1       14.2970  -20.7690   20.1530 O.2   231  ASN231     -0.2716
     96  ND2       15.8050  -22.2800   19.4570 N.am  231  ASN231     -0.0877
     97  N         17.1230  -21.0600   23.4180 N.am  232  ALA232     -0.1977
     98  CA        16.9770  -22.0910   24.4490 C.3   232  ALA232      0.1597
     99  C         16.4120  -21.5710   25.7780 C.2   232  ALA232      0.2287
    100  O         15.9360  -22.3550   26.6020 O.2   232  ALA232     -0.2864
    101  CB        18.3020  -22.8120   24.6710 C.3   232  ALA232      0.0319
@<TRIPOS>BOND
     1    48    47    2
     2    47    46    1
     3    40    39    2
     4    46    45    1
     5    39    45   am
     6    39    38    1
     7    37    38    1
     8    38    41    1
     9    41    43    1
    10    41    42    1
    11    62    61    1
    12    44    42    1
    13    31    30    2
    14    21    20    2
    15    61    58    1
    16    17    16    1
    17    30    29    1
    18    96    94   am
    19    20    19    1
    20    24    26   ar
    21    24    23   ar
    22    94    95    2
    23    94    93    1
    24    26    27   ar
    25    35    34   ar
    26    56    55    2
    27    58    57    1
    28    58    59    1
    29    55    57   am
    30    55    54    1
    31    15    16    1
    32    15    14    1
    33    54    53    1
    34    93    90    1
    35    29    32    1
    36    29    28    1
    37    34    33    1
    38    34    36   ar
    39    19    22    1
    40    19    18    1
    41    32    33    1
    42    23    22    1
    43    23    25   ar
    44    27    25   ar
    45    60    59    2
    46    13    14    1
    47    13    10    1
    48    52    51    2
    49    59    63   am
    50    53    51   am
    51    90    89    1
    52    90    91    1
    53    89    87   am
    54    51    50    1
    55    11    10    1
    56    11    12    2
    57    10     9    1
    58    63    64    1
    59    91    92    2
    60    91    97   am
    61    87    86    1
    62    87    88    2
    63    86    85    1
    64    97    98    1
    65    50    49    1
    66     8     6   am
    67    64    65    1
    68    64    67    1
    69    66    65    2
    70    85    80   am
    71    98   101    1
    72    98    99    1
    73     6     7    2
    74     6     5    1
    75     4     3    2
    76    69    67    1
    77    67    68    1
    78    73    72    2
    79    77    75    1
    80    80    81    2
    81    80    79    1
    82     5     2    1
    83     3     2    1
    84    99   100    2
    85    79    78    1
    86    79    82    1
    87    75    74    1
    88    75    76    1
    89    83    82    1
    90    72    78   am
    91    72    71    1
    92     2     1    1
    93    74    71    1
    94    82    84    1
    95    71    70    1
