@<TRIPOS>MOLECULE
tmp/2vfkA00.pdb
 103 95 0 0 0
SMALL
GASTEIGER

@<TRIPOS>ATOM
      1  N        -14.5030  -15.7790   -6.8260 N.3    45  HIS45      -0.1241
      2  CA       -14.8830  -14.6150   -7.6510 C.3    45  HIS45       0.1621
      3  C        -13.9260  -13.4720   -7.4590 C.2    45  HIS45       0.2264
      4  O        -13.1330  -13.4490   -6.4930 O.2    45  HIS45      -0.2867
      5  CB       -16.2870  -14.1350   -7.2330 C.3    45  HIS45       0.0745
      6  CG       -16.3190  -13.5600   -5.8430 C.ar   45  HIS45       0.0817
      7  ND1      -16.2510  -14.3520   -4.7180 N.ar   45  HIS45      -0.2268
      8  CD2      -16.3500  -12.2800   -5.4000 C.ar   45  HIS45       0.1154
      9  CE1      -16.2760  -13.5770   -3.6390 C.ar   45  HIS45       0.1986
     10  NE2      -16.3330  -12.3120   -4.0240 N.ar   45  HIS45      -0.2212
     11  N        -14.3450   -9.4680   -6.7530 N.3    47  THR47      -0.1218
     12  CA       -15.2890   -8.3800   -6.5250 C.3    47  THR47       0.1862
     13  C        -14.9320   -7.2170   -7.4500 C.2    47  THR47       0.2287
     14  O        -13.7550   -6.7950   -7.5180 O.2    47  THR47      -0.2866
     15  CB       -15.2410   -7.9100   -5.0770 C.3    47  THR47       0.1770
     16  OG1      -15.6310   -9.0110   -4.2400 O.3    47  THR47      -0.2211
     17  CG2      -16.1240   -6.6450   -4.8670 C.3    47  THR47       0.0375
     18  N         -3.8160   -9.2190    2.6820 N.3    92  PHE92      -0.1241
     19  CA        -4.0690   -7.8960    3.2530 C.3    92  PHE92       0.1605
     20  C         -3.7270   -8.0330    4.7270 C.2    92  PHE92       0.2264
     21  O         -4.5100   -8.5800    5.5170 O.2    92  PHE92      -0.2867
     22  CB        -5.5110   -7.4670    3.0600 C.3    92  PHE92       0.0534
     23  CG        -5.8910   -7.2440    1.6230 C.ar   92  PHE92      -0.0203
     24  CD1       -5.1260   -6.4130    0.7880 C.ar   92  PHE92      -0.0042
     25  CD2       -7.0360   -7.8350    1.0960 C.ar   92  PHE92      -0.0042
     26  CE1       -5.5010   -6.2190   -0.5590 C.ar   92  PHE92      -0.0003
     27  CE2       -7.3990   -7.6430   -0.2500 C.ar   92  PHE92      -0.0003
     28  CZ        -6.6370   -6.8090   -1.0610 C.ar   92  PHE92      -0.0000
     29  N         -6.3830  -11.6630    5.1960 N.3    96  VAL96      -0.1245
     30  CA        -7.1200  -12.1310    4.0210 C.3    96  VAL96       0.1561
     31  C         -6.0530  -12.7080    3.1280 C.2    96  VAL96       0.2260
     32  O         -5.0520  -12.0270    2.8490 O.2    96  VAL96      -0.2867
     33  CB        -7.8210  -10.9570    3.2830 C.3    96  VAL96       0.0252
     34  CG1       -8.5380  -11.4420    2.0210 C.3    96  VAL96       0.0019
     35  CG2       -8.7940  -10.2490    4.2020 C.3    96  VAL96       0.0019
     36  N        -16.0990    2.4730   -3.2560 N.3   130  GLU130     -0.1245
     37  CA       -15.3540    2.6440   -2.0040 C.3   130  GLU130      0.1567
     38  C        -14.3730    3.7820   -2.2030 C.2   130  GLU130      0.2260
     39  O        -13.9280    4.0030   -3.3090 O.2   130  GLU130     -0.2867
     40  CB       -14.5520    1.3790   -1.6170 C.3   130  GLU130      0.0388
     41  CG       -15.3670    0.1090   -1.3860 C.3   130  GLU130      0.1160
     42  CD       -14.6360   -0.9600   -0.5560 C.2   130  GLU130      0.3649
     43  OE1      -13.4980   -1.3520   -0.8950 O.co2 130  GLU130     -0.2457
     44  OE2      -15.2290   -1.4230    0.4410 O.co2 130  GLU130     -0.2457
     45  N        -11.3910    3.8070   -0.7630 N.3   132  ARG132     -0.1231
     46  CA       -10.1210    3.0940   -0.8230 C.3   132  ARG132      0.1694
     47  C         -9.8020    2.6510   -2.2800 C.2   132  ARG132      0.2592
     48  O        -10.7200    2.3930   -3.0630 O.2   132  ARG132     -0.2718
     49  CB       -10.2180    1.9550    0.1910 C.3   132  ARG132      0.0321
     50  CG        -9.4980    0.6760   -0.0700 C.3   132  ARG132      0.0489
     51  CD        -9.8220   -0.3030    1.0420 C.3   132  ARG132      0.2205
     52  NE       -10.9430   -1.1970    0.7240 N.pl3 132  ARG132     -0.0865
     53  CZ       -11.3710   -2.1660    1.5340 C.cat 132  ARG132      0.5346
     54  NH1      -10.7820   -2.3630    2.7160 N.pl3 132  ARG132      0.1354
     55  NH2      -12.3810   -2.9390    1.1700 N.pl3 132  ARG132      0.1354
     56  N         -8.5160    2.6350   -2.6370 N.am  133  THR133     -0.1953
     57  CA        -8.0660    2.2090   -3.9690 C.3   133  THR133      0.1897
     58  C         -8.4890    0.7580   -4.2190 C.2   133  THR133      0.2313
     59  O         -8.2890   -0.1130   -3.3680 O.2   133  THR133     -0.2863
     60  CB        -6.5340    2.3110   -4.1180 C.3   133  THR133      0.1794
     61  OG1       -6.1150    3.6590   -3.8750 O.3   133  THR133     -0.2208
     62  CG2       -6.1020    1.9250   -5.5260 C.3   133  THR133      0.0378
     63  N         -8.2180   -2.8200   -5.3600 N.3   135  LYS135     -0.1245
     64  CA        -7.1190   -3.7750   -5.4350 C.3   135  LYS135      0.1561
     65  C         -7.7140   -5.1460   -5.8130 C.2   135  LYS135      0.2260
     66  O         -8.0470   -5.9530   -4.9310 O.2   135  LYS135     -0.2867
     67  CB        -6.3540   -3.8400   -4.0890 C.3   135  LYS135      0.0271
     68  CG        -5.2700   -4.9030   -4.0270 C.3   135  LYS135      0.0035
     69  CD        -4.0260   -4.4840   -4.7840 C.3   135  LYS135      0.0206
     70  CE        -2.9950   -5.5750   -4.7270 C.3   135  LYS135      0.1093
     71  NZ        -1.9320   -5.2670   -5.7000 N.3   135  LYS135     -0.1314
     72  N         -8.3480   -8.9500   -6.4980 N.3   137  HIS137     -0.1241
     73  CA        -7.7190  -10.0840   -5.8530 C.3   137  HIS137      0.1621
     74  C         -8.6960  -11.2260   -5.8450 C.2   137  HIS137      0.2264
     75  O         -9.9050  -10.9530   -5.9240 O.2   137  HIS137     -0.2867
     76  CB        -7.3360   -9.7140   -4.4110 C.3   137  HIS137      0.0745
     77  CG        -8.5100   -9.3030   -3.5620 C.ar  137  HIS137      0.0817
     78  ND1       -9.0990   -8.0550   -3.6610 N.ar  137  HIS137     -0.2268
     79  CD2       -9.2350   -9.9970   -2.6480 C.ar  137  HIS137      0.1154
     80  CE1      -10.1140   -7.9880   -2.8190 C.ar  137  HIS137      0.1986
     81  NE2      -10.2220   -9.1520   -2.1950 N.ar  137  HIS137     -0.2212
     82  N         -9.9050  -14.0130   -3.4410 N.3   139  THR139     -0.1218
     83  CA        -9.7520  -14.4880   -2.0560 C.3   139  THR139      0.1862
     84  C         -9.8540  -16.0110   -1.9880 C.2   139  THR139      0.2287
     85  O        -10.7610  -16.6290   -2.6050 O.2   139  THR139     -0.2866
     86  CB       -10.8530  -13.8340   -1.2100 C.3   139  THR139      0.1770
     87  OG1      -10.6830  -12.4250   -1.3570 O.3   139  THR139     -0.2211
     88  CG2      -10.7700  -14.2320    0.2600 C.3   139  THR139      0.0375
     89  N        -10.2730  -15.8890    4.6620 N.3   142  LYS142     -0.1245
     90  CA       -10.3550  -14.6150    5.3860 C.3   142  LYS142      0.1561
     91  C        -10.6230  -14.9210    6.8530 C.2   142  LYS142      0.2260
     92  O        -11.5660  -15.6500    7.1810 O.2   142  LYS142     -0.2867
     93  CB       -11.4250  -13.7020    4.7700 C.3   142  LYS142      0.0271
     94  CG       -12.7780  -14.2920    4.5700 C.3   142  LYS142      0.0035
     95  CD       -13.6050  -13.4580    3.5440 C.3   142  LYS142      0.0206
     96  CE       -14.9390  -14.1410    3.2610 C.3   142  LYS142      0.1093
     97  NZ       -15.7420  -13.4860    2.1370 N.3   142  LYS142     -0.1314
     98  N        -11.6910  -13.2390    9.2310 N.3   144  SER144     -0.1217
     99  CA       -12.9190  -12.6120    9.7610 C.3   144  SER144      0.1889
    100  C        -14.1260  -13.5640    9.6960 C.2   144  SER144      0.2288
    101  O        -15.1230  -13.3920   10.4270 O.2   144  SER144     -0.2866
    102  CB       -13.2570  -11.3120    9.0070 C.3   144  SER144      0.2089
    103  OG       -13.4780  -11.5430    7.6320 O.3   144  SER144     -0.2183
@<TRIPOS>BOND
     1     2     3    1
     2     2     5    1
     3     2     1    1
     4    14    13    2
     5     3     4    2
     6    13    12    1
     7     5     6    1
     8    11    12    1
     9    12    15    1
    10    72    73    1
    11    75    74    2
    12    73    74    1
    13    73    76    1
    14     6     8   ar
    15     6     7   ar
    16    65    64    1
    17    65    66    2
    18    71    70    1
    19    62    60    1
    20    64    63    1
    21    64    67    1
    22     8    10   ar
    23    15    17    1
    24    15    16    1
    25    69    70    1
    26    69    68    1
    27     7     9   ar
    28    76    77    1
    29    58    57    1
    30    58    59    2
    31    60    57    1
    32    60    61    1
    33    67    68    1
    34    10     9   ar
    35    57    56    1
    36    78    77   ar
    37    78    80   ar
    38    77    79   ar
    39    82    83    1
    40    39    38    2
    41    36    37    1
    42    48    47    2
    43    80    81   ar
    44    79    81   ar
    45    56    47   am
    46    85    84    2
    47    47    46    1
    48    38    37    1
    49    83    84    1
    50    83    86    1
    51    37    40    1
    52    40    41    1
    53    41    42    1
    54    87    86    1
    55    86    88    1
    56    28    26   ar
    57    28    27   ar
    58    43    42   ar
    59    46    45    1
    60    46    49    1
    61    26    24   ar
    62    42    44   ar
    63    27    25   ar
    64    50    49    1
    65    50    51    1
    66    52    51    1
    67    52    53    2
    68    24    23   ar
    69    25    23   ar
    70    55    53    1
    71    53    54    1
    72    23    22    1
    73    34    33    1
    74    97    96    1
    75    18    19    1
    76    32    31    2
    77    22    19    1
    78    31    30    1
    79    19    20    1
    80    96    95    1
    81    33    30    1
    82    33    35    1
    83    95    94    1
    84    30    29    1
    85    94    93    1
    86    89    90    1
    87    20    21    2
    88    93    90    1
    89    90    91    1
    90    91    92    2
    91   103   102    1
    92   102    99    1
    93    98    99    1
    94   100    99    1
    95   100   101    2
