@<TRIPOS>MOLECULE
tmp/2vflA00.pdb
 110 101 0 0 0
SMALL
GASTEIGER

@<TRIPOS>ATOM
      1  N         32.2610  -15.6870   -2.9080 N.3    39  VAL39      -0.1245
      2  CA        31.4050  -14.8100   -2.1180 C.3    39  VAL39       0.1561
      3  C         32.2730  -13.7150   -1.5200 C.2    39  VAL39       0.2260
      4  O         33.4450  -13.9520   -1.1790 O.2    39  VAL39      -0.2867
      5  CB        30.5550  -15.5750   -1.0170 C.3    39  VAL39       0.0252
      6  CG1       29.7090  -16.7170   -1.6250 C.3    39  VAL39       0.0019
      7  CG2       31.4060  -16.0720    0.1050 C.3    39  VAL39       0.0019
      8  N         27.7030  -16.3300    6.2060 N.3    45  HIS45      -0.1241
      9  CA        26.4840  -16.5220    6.9590 C.3    45  HIS45       0.1621
     10  C         26.0340  -17.9320    6.7730 C.2    45  HIS45       0.2264
     11  O         26.4840  -18.6220    5.8390 O.2    45  HIS45      -0.2867
     12  CB        25.3660  -15.5340    6.4840 C.3    45  HIS45       0.0745
     13  CG        24.8700  -15.8100    5.0960 C.ar   45  HIS45       0.0817
     14  ND1       25.5490  -15.3980    3.9620 N.ar   45  HIS45      -0.2268
     15  CD2       23.7850  -16.5020    4.6530 C.ar   45  HIS45       0.1154
     16  CE1       24.8920  -15.8160    2.8870 C.ar   45  HIS45       0.1986
     17  NE2       23.8210  -16.4840    3.2810 N.ar   45  HIS45      -0.2212
     18  N         22.3380  -19.6480    6.0890 N.3    47  THR47      -0.1218
     19  CA        20.9070  -19.3570    5.8120 C.3    47  THR47       0.1862
     20  C         20.0770  -20.2210    6.7330 C.2    47  THR47       0.2287
     21  O         20.2480  -21.4460    6.7690 O.2    47  THR47      -0.2866
     22  CB        20.4880  -19.6320    4.3540 C.3    47  THR47       0.1770
     23  OG1       21.1550  -18.7130    3.5010 O.3    47  THR47      -0.2211
     24  CG2       18.9740  -19.4250    4.1420 C.3    47  THR47       0.0375
     25  N         27.6100  -28.7070   -3.3780 N.3    92  PHE92      -0.1241
     26  CA        26.3800  -29.1630   -4.0060 C.3    92  PHE92       0.1605
     27  C         26.7060  -29.3430   -5.4780 C.2    92  PHE92       0.2264
     28  O         26.8090  -28.3690   -6.2250 O.2    92  PHE92      -0.2867
     29  CB        25.2200  -28.1750   -3.8050 C.3    92  PHE92       0.0534
     30  CG        24.8510  -27.9530   -2.3510 C.ar   92  PHE92      -0.0203
     31  CD1       24.3850  -29.0210   -1.5610 C.ar   92  PHE92      -0.0042
     32  CD2       24.9710  -26.6850   -1.7680 C.ar   92  PHE92      -0.0042
     33  CE1       24.0480  -28.8320   -0.1970 C.ar   92  PHE92      -0.0003
     34  CE2       24.6370  -26.4830   -0.4070 C.ar   92  PHE92      -0.0003
     35  CZ        24.1690  -27.5710    0.3840 C.ar   92  PHE92      -0.0000
     36  N         28.5100  -25.3390   -5.9990 N.3    96  VAL96      -0.1245
     37  CA        28.5600  -24.4490   -4.8340 C.3    96  VAL96       0.1561
     38  C         29.5940  -25.1020   -3.9310 C.2    96  VAL96       0.2260
     39  O         29.5770  -26.3130   -3.7360 O.2    96  VAL96      -0.2867
     40  CB        27.1790  -24.3820   -4.0690 C.3    96  VAL96       0.0252
     41  CG1       27.2280  -23.3970   -2.9440 C.3    96  VAL96       0.0019
     42  CG2       26.0220  -24.0190   -4.9930 C.3    96  VAL96       0.0019
     43  N         11.1900  -24.0470    2.5080 N.3   130  GLU130     -0.1245
     44  CA        11.4350  -24.7720    1.2580 C.3   130  GLU130      0.1567
     45  C         10.9490  -26.2060    1.4320 C.2   130  GLU130      0.2260
     46  O         10.7600  -26.6670    2.5750 O.2   130  GLU130     -0.2867
     47  CB        12.9390  -24.7860    0.9230 C.3   130  GLU130      0.0388
     48  CG        13.4820  -23.4880    0.3860 C.3   130  GLU130      0.1160
     49  CD        14.9270  -23.5650   -0.1420 C.2   130  GLU130      0.3649
     50  OE1       15.7070  -24.4620    0.2560 O.co2 130  GLU130     -0.2457
     51  OE2       15.2910  -22.6920   -0.9730 O.co2 130  GLU130     -0.2457
     52  N         12.7600  -28.7470   -0.0290 N.3   132  ARG132     -0.1231
     53  CA        14.0900  -29.3690    0.0960 C.3   132  ARG132      0.1694
     54  C         14.5420  -29.5040    1.5610 C.2   132  ARG132      0.2592
     55  O         14.3550  -28.5650    2.3550 O.2   132  ARG132     -0.2718
     56  CB        15.0950  -28.5230   -0.6820 C.3   132  ARG132      0.0321
     57  CG        16.4790  -29.1260   -0.8630 C.3   132  ARG132      0.0489
     58  CD        17.3500  -28.2310   -1.7630 C.3   132  ARG132      0.2205
     59  NE        17.3520  -26.8100   -1.3660 N.pl3 132  ARG132     -0.0865
     60  CZ        17.7040  -25.8080   -2.1740 C.cat 132  ARG132      0.5346
     61  NH1       18.0810  -26.0640   -3.4220 N.pl3 132  ARG132      0.1354
     62  NH2       17.6830  -24.5460   -1.7410 N.pl3 132  ARG132      0.1354
     63  N         15.1300  -30.6550    1.9170 N.am  133  THR133     -0.1953
     64  CA        15.6650  -30.8890    3.2800 C.3   133  THR133      0.1897
     65  C         16.7230  -29.8160    3.6510 C.2   133  THR133      0.2313
     66  O         17.6030  -29.4680    2.8500 O.2   133  THR133     -0.2863
     67  CB        16.2280  -32.3640    3.4850 C.3   133  THR133      0.1794
     68  OG1       15.2280  -33.3360    3.1530 O.3   133  THR133     -0.2208
     69  CG2       16.6820  -32.6180    4.9400 C.3   133  THR133      0.0378
     70  N         19.9070  -28.3350    4.8960 N.3   135  LYS135     -0.1245
     71  CA        21.2880  -28.7750    4.9220 C.3   135  LYS135      0.1561
     72  C         22.1010  -27.5490    5.1530 C.2   135  LYS135      0.2260
     73  O         22.5410  -26.9140    4.1800 O.2   135  LYS135     -0.2867
     74  CB        21.6820  -29.4000    3.5750 C.3   135  LYS135      0.0271
     75  CG        22.8920  -30.3970    3.6270 C.3   135  LYS135      0.0035
     76  CD        22.9600  -31.2500    2.3340 C.3   135  LYS135      0.0206
     77  CE        24.4140  -31.6500    1.9590 C.3   135  LYS135      0.1093
     78  NZ        24.5450  -32.1700    0.5190 N.3   135  LYS135     -0.1314
     79  N         25.0110  -24.9410    5.6960 N.3   137  HIS137     -0.1241
     80  CA        26.3450  -24.8950    5.1390 C.3   137  HIS137      0.1621
     81  C         26.8170  -23.4460    5.0710 C.2   137  HIS137      0.2264
     82  O         26.0060  -22.5050    5.0390 O.2   137  HIS137     -0.2867
     83  CB        26.2910  -25.4860    3.7390 C.3   137  HIS137      0.0745
     84  CG        25.3960  -24.7110    2.8280 C.ar  137  HIS137      0.0817
     85  ND1       24.0260  -24.8670    2.8220 N.ar  137  HIS137     -0.2268
     86  CD2       25.6730  -23.7160    1.9530 C.ar  137  HIS137      0.1154
     87  CE1       23.5060  -24.0230    1.9510 C.ar  137  HIS137      0.1986
     88  NE2       24.4820  -23.3050    1.4210 N.ar  137  HIS137     -0.2212
     89  N         28.6730  -21.2060    2.6420 N.3   139  THR139     -0.1218
     90  CA        29.1390  -20.9870    1.2660 C.3   139  THR139      0.1862
     91  C         30.3570  -20.0860    1.1900 C.2   139  THR139      0.2287
     92  O         30.3820  -19.0160    1.8130 O.2   139  THR139     -0.2866
     93  CB        28.0040  -20.3900    0.4230 C.3   139  THR139      0.1770
     94  OG1       26.8760  -21.2600    0.5310 O.3   139  THR139     -0.2211
     95  CG2       28.3900  -20.2620   -1.0550 C.3   139  THR139      0.0375
     96  N         30.1390  -19.8310   -5.4000 N.3   142  LYS142     -0.1245
     97  CA        29.0350  -20.4030   -6.1650 C.3   142  LYS142      0.1561
     98  C         29.1880  -20.0070   -7.6250 C.2   142  LYS142      0.2260
     99  O         29.2590  -18.8400   -7.9620 O.2   142  LYS142     -0.2867
    100  CB        27.6560  -20.0730   -5.5280 C.3   142  LYS142      0.0271
    101  CG        27.3830  -18.5890   -5.2550 C.3   142  LYS142      0.0035
    102  CD        26.3180  -18.3060   -4.1710 C.3   142  LYS142      0.0206
    103  CE        26.1750  -16.7850   -3.9730 C.3   142  LYS142      0.1093
    104  NZ        25.3110  -16.3930   -2.8060 N.3   142  LYS142     -0.1314
    105  N         27.1820  -20.0710  -10.0560 N.3   144  SER144     -0.1217
    106  CA        26.0450  -19.2800  -10.5750 C.3   144  SER144      0.1889
    107  C         26.2600  -17.7530  -10.4340 C.2   144  SER144      0.2288
    108  O         25.6150  -16.9850  -11.1130 O.2   144  SER144     -0.2866
    109  CB        24.7380  -19.7080   -9.9110 C.3   144  SER144      0.2089
    110  OG        24.7280  -19.3230   -8.5540 O.3   144  SER144     -0.2183
@<TRIPOS>BOND
     1   108   107    2
     2   106   107    1
     3   106   105    1
     4   106   109    1
     5   109   110    1
     6    99    98    2
     7    98    97    1
     8    28    27    2
     9    97   100    1
    10    97    96    1
    11    36    37    1
    12   100   101    1
    13    27    26    1
    14   101   102    1
    15    42    40    1
    16    37    40    1
    17    37    38    1
    18   102   103    1
    19    40    41    1
    20    26    29    1
    21    26    25    1
    22   103   104    1
    23    38    39    2
    24    29    30    1
    25    61    60    1
    26     1     2    1
    27    30    32   ar
    28    30    31   ar
    29    60    62    1
    30    60    59    2
    31     2     3    1
    32     2     5    1
    33    32    34   ar
    34    58    59    1
    35    58    57    1
    36     6     5    1
    37    31    33   ar
    38     3     4    2
    39    95    93    1
    40     5     7    1
    41    51    49   ar
    42    57    56    1
    43    56    53    1
    44    34    35   ar
    45    33    35   ar
    46    49    50   ar
    47    49    48    1
    48    52    53    1
    49    53    54    1
    50    48    47    1
    51    93    94    1
    52    93    90    1
    53    78    77    1
    54    47    44    1
    55    91    90    1
    56    91    92    2
    57    44    45    1
    58    44    43    1
    59    90    89    1
    60    88    87   ar
    61    88    86   ar
    62    45    46    2
    63    54    63   am
    64    54    55    2
    65    63    64    1
    66    87    85   ar
    67    86    84   ar
    68    77    76    1
    69    76    75    1
    70    85    84   ar
    71    84    83    1
    72    66    65    2
    73    16    17   ar
    74    16    14   ar
    75    68    67    1
    76    64    67    1
    77    64    65    1
    78    17    15   ar
    79    67    69    1
    80    23    22    1
    81    74    75    1
    82    74    71    1
    83    83    80    1
    84    14    13   ar
    85    24    22    1
    86    73    72    2
    87    22    19    1
    88    15    13   ar
    89    70    71    1
    90    71    72    1
    91    82    81    2
    92    81    80    1
    93    13    12    1
    94    80    79    1
    95    19    18    1
    96    19    20    1
    97    11    10    2
    98     8     9    1
    99    12     9    1
   100    20    21    2
   101    10     9    1
