@<TRIPOS>MOLECULE
tmp/2vfsA01.pdb
 131 124 0 0 0
SMALL
GASTEIGER

@<TRIPOS>ATOM
      1  N         30.3280   40.9020   17.2660 N.3   102  SER102     -0.1202
      2  CA        30.8950   40.3260   18.4810 C.3   102  SER102      0.2020
      3  C         30.9570   38.7760   18.4620 C.2   102  SER102      0.2618
      4  O         31.8280   38.1910   19.1240 O.2   102  SER102     -0.2717
      5  CB        30.0940   40.7860   19.6980 C.3   102  SER102      0.2103
      6  OG        28.7520   40.3030   19.6270 O.3   102  SER102     -0.2182
      7  N         30.0250   38.1500   17.7320 N.am  103  LEU103     -0.1979
      8  CA        29.8840   36.6530   17.7000 C.3   103  LEU103      0.1596
      9  C         29.8050   36.2660   16.2190 C.2   103  LEU103      0.2287
     10  O         28.9510   36.8480   15.5050 O.2   103  LEU103     -0.2864
     11  CB        28.6180   36.1980   18.4150 C.3   103  LEU103      0.0297
     12  CG        28.4140   34.6690   18.4350 C.3   103  LEU103      0.0022
     13  CD1       28.7320   34.0850   19.8010 C.3   103  LEU103      0.0001
     14  CD2       26.9710   34.3700   18.1020 C.3   103  LEU103      0.0001
     15  N         32.7780   48.8970   28.1590 N.3   209  PHE209     -0.1241
     16  CA        31.6550   48.1910   28.7950 C.3   209  PHE209      0.1605
     17  C         31.3680   48.7690   30.1630 C.2   209  PHE209      0.2264
     18  O         32.3180   49.0810   30.9280 O.2   209  PHE209     -0.2867
     19  CB        31.9540   46.6930   28.9850 C.3   209  PHE209      0.0534
     20  CG        32.1760   45.9250   27.6600 C.ar  209  PHE209     -0.0203
     21  CD1       31.0570   45.4070   26.9190 C.ar  209  PHE209     -0.0042
     22  CD2       33.4640   45.7470   27.1680 C.ar  209  PHE209     -0.0042
     23  CE1       31.2790   44.7040   25.7140 C.ar  209  PHE209     -0.0003
     24  CE2       33.6990   45.0470   25.9610 C.ar  209  PHE209     -0.0003
     25  CZ        32.6140   44.5320   25.2420 C.ar  209  PHE209     -0.0000
     26  N         32.7110   40.3930   28.7630 N.3   245  PRO245     -0.2102
     27  CA        31.8920   41.6350   28.6960 C.3   245  PRO245      0.1504
     28  C         30.8030   41.6870   29.7660 C.2   245  PRO245      0.2575
     29  O         30.4910   42.7760   30.2750 O.2   245  PRO245     -0.2718
     30  CB        31.2310   41.5510   27.3180 C.3   245  PRO245      0.0282
     31  CG        32.2090   40.7600   26.4650 C.3   245  PRO245      0.0208
     32  CD        32.8800   39.7700   27.4330 C.3   245  PRO245      0.0893
     33  N         30.2010   40.5330   30.0820 N.am  246  VAL246     -0.1980
     34  CA        29.1290   40.4470   31.0710 C.3   246  VAL246      0.1595
     35  C         29.6720   39.9010   32.3930 C.2   246  VAL246      0.2287
     36  O         30.0120   38.7020   32.4740 O.2   246  VAL246     -0.2864
     37  CB        27.9380   39.5320   30.6020 C.3   246  VAL246      0.0276
     38  CG1       26.8420   39.4110   31.7270 C.3   246  VAL246      0.0022
     39  CG2       27.3320   40.0030   29.2900 C.3   246  VAL246      0.0022
     40  N         34.3150   39.1520   20.1030 N.3   270  HIS270     -0.1226
     41  CA        34.5600   39.0040   21.5710 C.3   270  HIS270      0.1752
     42  C         34.4950   37.5450   22.0220 C.2   270  HIS270      0.2596
     43  O         34.9770   37.2000   23.1080 O.2   270  HIS270     -0.2718
     44  CB        33.5630   39.8010   22.4260 C.3   270  HIS270      0.0759
     45  CG        33.4610   41.2480   22.0330 C.ar  270  HIS270      0.0818
     46  ND1       32.2910   41.9850   22.1360 N.ar  270  HIS270     -0.2268
     47  CD2       34.3920   42.0770   21.4990 C.ar  270  HIS270      0.1154
     48  CE1       32.5230   43.2190   21.7010 C.ar  270  HIS270      0.1986
     49  NE2       33.7830   43.2980   21.3140 N.ar  270  HIS270     -0.2212
     50  N         33.8260   36.7280   21.2010 N.am  271  PHE271     -0.1976
     51  CA        33.4880   35.3400   21.5510 C.3   271  PHE271      0.1639
     52  C         34.1810   34.3660   20.6110 C.2   271  PHE271      0.2290
     53  O         34.1480   34.5440   19.3790 O.2   271  PHE271     -0.2864
     54  CB        31.9400   35.1820   21.5920 C.3   271  PHE271      0.0560
     55  CG        31.3010   36.1170   22.5940 C.ar  271  PHE271     -0.0200
     56  CD1       31.5040   35.9050   23.9660 C.ar  271  PHE271     -0.0042
     57  CD2       30.6120   37.2720   22.1930 C.ar  271  PHE271     -0.0042
     58  CE1       30.9700   36.7930   24.9230 C.ar  271  PHE271     -0.0003
     59  CE2       30.0740   38.1690   23.1320 C.ar  271  PHE271     -0.0003
     60  CZ        30.2550   37.9340   24.5040 C.ar  271  PHE271     -0.0000
     61  N         18.8200   36.3680   26.9180 N.3   282  GLU282     -0.1245
     62  CA        19.0630   37.8100   26.8830 C.3   282  GLU282      0.1567
     63  C         18.1190   38.4930   25.9050 C.2   282  GLU282      0.2260
     64  O         17.5970   37.8570   24.9800 O.2   282  GLU282     -0.2867
     65  CB        20.5260   38.0910   26.5280 C.3   282  GLU282      0.0388
     66  CG        20.9340   37.7020   25.1050 C.3   282  GLU282      0.1160
     67  CD        22.4540   37.8850   24.8450 C.2   282  GLU282      0.3649
     68  OE1       23.2540   37.4110   25.6800 O.co2 282  GLU282     -0.2457
     69  OE2       22.8670   38.4720   23.8000 O.co2 282  GLU282     -0.2457
     70  N         18.3020   42.3560   23.5470 N.3   284  GLN284     -0.1245
     71  CA        19.2650   43.4040   23.1400 C.3   284  GLN284      0.1566
     72  C         18.5590   44.6340   22.5940 C.2   284  GLN284      0.2260
     73  O         17.5020   44.4960   21.9870 O.2   284  GLN284     -0.2867
     74  CB        20.1790   42.8990   22.0190 C.3   284  GLN284      0.0367
     75  CG        21.2030   41.8100   22.5090 C.3   284  GLN284      0.0905
     76  CD        22.1650   41.3610   21.4070 C.2   284  GLN284      0.2608
     77  OE1       22.3200   42.0350   20.3650 O.2   284  GLN284     -0.2717
     78  NE2       22.8090   40.2140   21.6260 N.am  284  GLN284     -0.0878
     79  N         24.9800   43.8310   30.3950 N.3   314  THR314     -0.1218
     80  CA        26.0960   44.7440   30.1290 C.3   314  THR314      0.1862
     81  C         25.7160   45.7820   29.0690 C.2   314  THR314      0.2287
     82  O         24.8040   45.5140   28.2820 O.2   314  THR314     -0.2866
     83  CB        27.3910   43.9950   29.7270 C.3   314  THR314      0.1770
     84  OG1       28.5170   44.8310   29.9690 O.3   314  THR314     -0.2211
     85  CG2       27.3840   43.5800   28.2230 C.3   314  THR314      0.0375
     86  N         27.5640   48.1860   26.0150 N.3   316  GLU316     -0.1245
     87  CA        28.7960   48.3130   25.2230 C.3   316  GLU316      0.1567
     88  C         28.7550   49.5990   24.3740 C.2   316  GLU316      0.2260
     89  O         27.7610   49.8360   23.6600 O.2   316  GLU316     -0.2867
     90  CB        28.9500   47.1010   24.2700 C.3   316  GLU316      0.0388
     91  CG        30.2450   47.1040   23.4400 C.3   316  GLU316      0.1160
     92  CD        30.4200   45.8490   22.6010 C.2   316  GLU316      0.3649
     93  OE1       29.4750   45.0040   22.5990 O.co2 316  GLU316     -0.2457
     94  OE2       31.4860   45.7710   21.9590 O.co2 316  GLU316     -0.2457
     95  N         30.5680   51.7620   21.2990 N.3   318  ARG318     -0.1245
     96  CA        31.3890   51.5630   20.0830 C.3   318  ARG318      0.1563
     97  C         31.3060   52.7620   19.1690 C.2   318  ARG318      0.2260
     98  O         30.5140   53.6920   19.4350 O.2   318  ARG318     -0.2867
     99  CB        30.9310   50.2950   19.3360 C.3   318  ARG318      0.0307
    100  CG        31.3240   49.0400   20.1280 C.3   318  ARG318      0.0489
    101  CD        30.9370   47.6950   19.4210 C.3   318  ARG318      0.2205
    102  NE        29.5030   47.4420   19.5300 N.pl3 318  ARG318     -0.0865
    103  CZ        28.9360   46.2830   19.1630 C.cat 318  ARG318      0.5346
    104  NH1       29.6790   45.2630   18.6680 N.pl3 318  ARG318      0.1354
    105  NH2       27.6230   46.1330   19.2910 N.pl3 318  ARG318      0.1354
    106  N         24.9480   50.0980   23.0630 N.3   339  HIS339     -0.1241
    107  CA        24.2940   48.7960   23.0280 C.3   339  HIS339      0.1621
    108  C         23.9590   48.3320   24.4550 C.2   339  HIS339      0.2264
    109  O         24.7810   48.5150   25.3790 O.2   339  HIS339     -0.2867
    110  CB        25.2510   47.7600   22.3850 C.3   339  HIS339      0.0745
    111  CG        24.7780   46.3590   22.5770 C.ar  339  HIS339      0.0817
    112  ND1       23.9190   45.7390   21.6890 N.ar  339  HIS339     -0.2268
    113  CD2       24.9560   45.4980   23.6130 C.ar  339  HIS339      0.1154
    114  CE1       23.6240   44.5290   22.1570 C.ar  339  HIS339      0.1986
    115  NE2       24.2190   44.3750   23.3340 N.ar  339  HIS339     -0.2212
    116  N         22.7200   44.8240   26.4910 N.3   341  THR341     -0.1218
    117  CA        22.2920   43.4150   26.6460 C.3   341  THR341      0.1862
    118  C         21.5060   43.3240   27.9520 C.2   341  THR341      0.2287
    119  O         22.1020   43.4530   29.0470 O.2   341  THR341     -0.2866
    120  CB        23.5080   42.4810   26.6860 C.3   341  THR341      0.1770
    121  OG1       24.2500   42.6240   25.4650 O.3   341  THR341     -0.2211
    122  CG2       23.0780   40.9950   26.8550 C.3   341  THR341      0.0375
    123  N         17.2540   44.7400   16.7260 N.3   371  LYS371     -0.1245
    124  CA        17.1620   44.6850   18.1930 C.3   371  LYS371      0.1561
    125  C         15.8190   45.2600   18.7030 C.2   371  LYS371      0.2260
    126  O         14.9990   45.7270   17.9430 O.2   371  LYS371     -0.2867
    127  CB        18.3920   45.3490   18.8330 C.3   371  LYS371      0.0271
    128  CG        19.6790   44.7080   18.3170 C.3   371  LYS371      0.0035
    129  CD        20.9900   45.4060   18.8800 C.3   371  LYS371      0.0206
    130  CE        22.2690   44.7270   18.3220 C.3   371  LYS371      0.1093
    131  NZ        23.5720   45.3730   18.8130 N.3   371  LYS371     -0.1314
@<TRIPOS>BOND
     1    10     9    2
     2     9     8    1
     3   123   124    1
     4     1     2    1
     5     8     7    1
     6     8    11    1
     7     7     3   am
     8   126   125    2
     9    14    12    1
    10   124   125    1
    11   124   127    1
    12   128   127    1
    13   128   129    1
    14   130   131    1
    15   130   129    1
    16    11    12    1
    17    12    13    1
    18     3     2    1
    19     3     4    2
    20     2     5    1
    21   104   103    1
    22   103   105    1
    23   103   102    2
    24    97    98    2
    25    97    96    1
    26    99    96    1
    27    99   100    1
    28    53    52    2
    29   101   102    1
    30   101   100    1
    31     6     5    1
    32    96    95    1
    33    40    41    1
    34    77    76    2
    35    52    51    1
    36    50    51    1
    37    50    42   am
    38    49    47   ar
    39    49    48   ar
    40    76    78   am
    41    76    75    1
    42    47    45   ar
    43    51    54    1
    44    41    42    1
    45    41    44    1
    46    54    55    1
    47   112   114   ar
    48   112   111   ar
    49    48    46   ar
    50    94    92   ar
    51    73    72    2
    52    74    75    1
    53    74    71    1
    54    42    43    2
    55    45    46   ar
    56    45    44    1
    57   114   115   ar
    58    57    55   ar
    59    57    59   ar
    60   110   111    1
    61   110   107    1
    62   111   113   ar
    63    55    56   ar
    64    72    71    1
    65    93    92   ar
    66    92    91    1
    67   107   106    1
    68   107   108    1
    69    59    60   ar
    70    71    70    1
    71   115   113   ar
    72    91    90    1
    73    89    88    2
    74    69    67   ar
    75    56    58   ar
    76    90    87    1
    77    88    87    1
    78   108   109    2
    79    60    58   ar
    80    67    66    1
    81    67    68   ar
    82    64    63    2
    83    66    65    1
    84    87    86    1
    85    25    23   ar
    86    25    24   ar
    87   121   120    1
    88    23    21   ar
    89    63    62    1
    90    24    22   ar
    91    31    30    1
    92    31    32    1
    93   116   117    1
    94    65    62    1
    95   117   120    1
    96   117   118    1
    97   120   122    1
    98    62    61    1
    99    21    20   ar
   100    22    20   ar
   101    30    27    1
   102    32    26    1
   103    20    19    1
   104   118   119    2
   105    15    16    1
   106    85    83    1
   107    82    81    2
   108    27    26    1
   109    27    28    1
   110    16    19    1
   111    16    17    1
   112    81    80    1
   113    39    37    1
   114    83    84    1
   115    83    80    1
   116    28    33   am
   117    28    29    2
   118    33    34    1
   119    80    79    1
   120    17    18    2
   121    37    34    1
   122    37    38    1
   123    34    35    1
   124    35    36    2
