@<TRIPOS>MOLECULE
tmp/2vftA01.pdb
 141 135 0 0 0
SMALL
GASTEIGER

@<TRIPOS>ATOM
      1  N         29.9830   40.4910   16.8880 N.3   104  SER104     -0.1202
      2  CA        30.5700   39.9180   18.1140 C.3   104  SER104      0.2020
      3  C         30.6680   38.3770   18.0050 C.2   104  SER104      0.2618
      4  O         31.5240   37.7360   18.6970 O.2   104  SER104     -0.2717
      5  CB        29.7220   40.2920   19.3560 C.3   104  SER104      0.2103
      6  OG        28.3830   39.7160   19.2460 O.3   104  SER104     -0.2182
      7  N         29.7660   37.7700   17.2320 N.am  105  LEU105     -0.1979
      8  CA        29.6470   36.2780   17.1640 C.3   105  LEU105      0.1596
      9  C         29.6020   35.9100   15.6920 C.2   105  LEU105      0.2287
     10  O         28.7780   36.4760   14.9660 O.2   105  LEU105     -0.2864
     11  CB        28.3590   35.7900   17.8690 C.3   105  LEU105      0.0297
     12  CG        28.2110   34.2640   17.8910 C.3   105  LEU105      0.0022
     13  CD1       28.2650   33.6270   19.3130 C.3   105  LEU105      0.0001
     14  CD2       26.9850   33.8440   17.1330 C.3   105  LEU105      0.0001
     15  N         31.9130   48.0930   28.1820 N.3   211  PHE211     -0.1241
     16  CA        30.8520   47.2590   28.7860 C.3   211  PHE211      0.1605
     17  C         30.5090   47.7700   30.1760 C.2   211  PHE211      0.2264
     18  O         31.3970   48.1750   30.9370 O.2   211  PHE211     -0.2867
     19  CB        31.2920   45.8000   28.9000 C.3   211  PHE211      0.0534
     20  CG        31.5010   45.1210   27.5520 C.ar  211  PHE211     -0.0203
     21  CD1       30.3910   44.6150   26.8340 C.ar  211  PHE211     -0.0042
     22  CD2       32.7840   45.0790   26.9690 C.ar  211  PHE211     -0.0042
     23  CE1       30.5900   43.9840   25.6000 C.ar  211  PHE211     -0.0003
     24  CE2       32.9940   44.4330   25.7160 C.ar  211  PHE211     -0.0003
     25  CZ        31.8900   43.9120   25.0290 C.ar  211  PHE211     -0.0000
     26  N         34.8320   37.9890   30.2650 N.3   246  HIS246     -0.1227
     27  CA        33.6190   37.8080   29.4390 C.3   246  HIS246      0.1737
     28  C         32.8580   39.1170   29.5210 C.2   246  HIS246      0.2438
     29  O         32.7730   39.6860   30.6030 O.2   246  HIS246     -0.2733
     30  CB        32.7320   36.6800   30.0150 C.3   246  HIS246      0.0758
     31  CG        31.6370   36.2200   29.0910 C.ar  246  HIS246      0.0818
     32  ND1       30.5280   37.0030   28.7670 N.ar  246  HIS246     -0.2268
     33  CD2       31.4720   35.0460   28.4360 C.ar  246  HIS246      0.1154
     34  CE1       29.7370   36.3190   27.9600 C.ar  246  HIS246      0.1986
     35  NE2       30.2710   35.1200   27.7570 N.ar  246  HIS246     -0.2212
     36  N         32.2950   39.5790   28.3810 N.am  247  PRO247     -0.2718
     37  CA        31.5060   40.8270   28.4530 C.3   247  PRO247      0.1535
     38  C         30.3560   40.8070   29.4770 C.2   247  PRO247      0.2598
     39  O         30.0310   41.8660   30.0490 O.2   247  PRO247     -0.2715
     40  CB        30.9890   41.0080   27.0480 C.3   247  PRO247      0.0310
     41  CG        31.9810   40.2610   26.1330 C.3   247  PRO247      0.0237
     42  CD        32.3560   39.0300   27.0070 C.3   247  PRO247      0.0939
     43  N         29.7540   39.6260   29.7100 N.am  248  VAL248     -0.1978
     44  CA        28.7570   39.4370   30.7770 C.3   248  VAL248      0.1596
     45  C         29.3860   38.8890   32.0720 C.2   248  VAL248      0.2287
     46  O         29.8630   37.7520   32.0850 O.2   248  VAL248     -0.2864
     47  CB        27.5670   38.5010   30.3350 C.3   248  VAL248      0.0276
     48  CG1       26.5850   38.3150   31.4960 C.3   248  VAL248      0.0022
     49  CG2       26.8200   39.0320   29.1020 C.3   248  VAL248      0.0022
     50  N         34.0170   38.8130   19.6460 N.3   272  HIS272     -0.1226
     51  CA        34.2610   38.6050   21.0950 C.3   272  HIS272      0.1752
     52  C         34.2800   37.1400   21.4950 C.2   272  HIS272      0.2596
     53  O         34.7450   36.8050   22.6130 O.2   272  HIS272     -0.2718
     54  CB        33.2290   39.3290   21.9790 C.3   272  HIS272      0.0759
     55  CG        33.0950   40.7860   21.6520 C.ar  272  HIS272      0.0818
     56  ND1       31.9210   41.4970   21.8060 N.ar  272  HIS272     -0.2268
     57  CD2       34.0160   41.6640   21.1970 C.ar  272  HIS272      0.1154
     58  CE1       32.1310   42.7600   21.4390 C.ar  272  HIS272      0.1986
     59  NE2       33.4030   42.8890   21.0890 N.ar  272  HIS272     -0.2212
     60  N         33.7420   36.2940   20.6060 N.am  273  PHE273     -0.1976
     61  CA        33.5300   34.8810   20.8880 C.3   273  PHE273      0.1639
     62  C         34.3040   34.0320   19.8860 C.2   273  PHE273      0.2290
     63  O         34.2830   34.2820   18.6730 O.2   273  PHE273     -0.2864
     64  CB        32.0250   34.5380   20.8720 C.3   273  PHE273      0.0560
     65  CG        31.2670   35.3100   21.9140 C.ar  273  PHE273     -0.0200
     66  CD1       31.3990   34.9560   23.2640 C.ar  273  PHE273     -0.0042
     67  CD2       30.5190   36.4350   21.5720 C.ar  273  PHE273     -0.0042
     68  CE1       30.7580   35.7170   24.2630 C.ar  273  PHE273     -0.0003
     69  CE2       29.8860   37.2040   22.5620 C.ar  273  PHE273     -0.0003
     70  CZ        30.0140   36.8220   23.9220 C.ar  273  PHE273     -0.0000
     71  N         18.5640   35.0350   26.2730 N.3   284  GLU284     -0.1245
     72  CA        18.7630   36.4880   26.2860 C.3   284  GLU284      0.1567
     73  C         17.7890   37.1670   25.3270 C.2   284  GLU284      0.2260
     74  O         17.2320   36.5090   24.4200 O.2   284  GLU284     -0.2867
     75  CB        20.1850   36.8480   25.8490 C.3   284  GLU284      0.0388
     76  CG        20.5440   36.5190   24.3390 C.3   284  GLU284      0.1160
     77  CD        22.0310   36.6510   24.0520 C.2   284  GLU284      0.3649
     78  OE1       22.8370   36.0140   24.7580 O.co2 284  GLU284     -0.2457
     79  OE2       22.4270   37.3960   23.1450 O.co2 284  GLU284     -0.2457
     80  N         17.8200   41.1710   23.1750 N.3   286  GLN286     -0.1245
     81  CA        18.7750   42.2270   22.8430 C.3   286  GLN286      0.1566
     82  C         17.9860   43.4490   22.3480 C.2   286  GLN286      0.2260
     83  O         16.9320   43.3020   21.7170 O.2   286  GLN286     -0.2867
     84  CB        19.7150   41.7990   21.7090 C.3   286  GLN286      0.0367
     85  CG        20.7490   40.7360   22.1220 C.3   286  GLN286      0.0905
     86  CD        21.7140   40.3980   20.9770 C.2   286  GLN286      0.2608
     87  OE1       21.7940   41.1190   19.9300 O.2   286  GLN286     -0.2717
     88  NE2       22.4330   39.2770   21.1450 N.am  286  GLN286     -0.0878
     89  N         24.4350   42.5990   30.1130 N.3   316  THR316     -0.1218
     90  CA        25.4870   43.6070   29.9280 C.3   316  THR316      0.1862
     91  C         25.0320   44.6460   28.9000 C.2   316  THR316      0.2287
     92  O         24.1840   44.3570   28.0430 O.2   316  THR316     -0.2866
     93  CB        26.8380   42.9640   29.5130 C.3   316  THR316      0.1770
     94  OG1       27.9330   43.8670   29.7650 O.3   316  THR316     -0.2211
     95  CG2       26.8530   42.5440   28.0140 C.3   316  THR316      0.0375
     96  N         26.7880   47.2760   25.9320 N.3   318  GLU318     -0.1245
     97  CA        28.0240   47.4400   25.1530 C.3   318  GLU318      0.1567
     98  C         27.9050   48.7510   24.3530 C.2   318  GLU318      0.2260
     99  O         26.8990   48.9590   23.6540 O.2   318  GLU318     -0.2867
    100  CB        28.1900   46.2630   24.1490 C.3   318  GLU318      0.0388
    101  CG        29.5040   46.3430   23.3780 C.3   318  GLU318      0.1160
    102  CD        29.7600   45.1330   22.4720 C.2   318  GLU318      0.3649
    103  OE1       28.8820   44.2110   22.3690 O.co2 318  GLU318     -0.2457
    104  OE2       30.8250   45.1980   21.8420 O.co2 318  GLU318     -0.2457
    105  N         29.6520   51.1270   21.4110 N.3   320  ARG320     -0.1245
    106  CA        30.4960   51.0000   20.1910 C.3   320  ARG320      0.1563
    107  C         30.3580   52.2310   19.3030 C.2   320  ARG320      0.2260
    108  O         29.5090   53.0970   19.5750 O.2   320  ARG320     -0.2867
    109  CB        30.1140   49.7380   19.3780 C.3   320  ARG320      0.0307
    110  CG        30.4960   48.4590   20.1460 C.3   320  ARG320      0.0489
    111  CD        30.1840   47.1750   19.3230 C.3   320  ARG320      0.2205
    112  NE        28.7400   46.8850   19.3510 N.pl3 320  ARG320     -0.0865
    113  CZ        28.2190   45.7240   18.9220 C.cat 320  ARG320      0.5346
    114  NH1       29.0230   44.7590   18.4490 N.pl3 320  ARG320      0.1354
    115  NH2       26.9000   45.5160   18.9820 N.pl3 320  ARG320      0.1354
    116  N         24.1230   49.0990   23.1010 N.3   341  HIS341     -0.1241
    117  CA        23.5100   47.7890   22.9970 C.3   341  HIS341      0.1621
    118  C         23.2300   47.2440   24.3990 C.2   341  HIS341      0.2264
    119  O         24.0360   47.4490   25.3310 O.2   341  HIS341     -0.2867
    120  CB        24.5220   46.8480   22.2760 C.3   341  HIS341      0.0745
    121  CG        24.1070   45.4140   22.3770 C.ar  341  HIS341      0.0817
    122  ND1       23.2800   44.8040   21.4570 N.ar  341  HIS341     -0.2268
    123  CD2       24.3050   44.5130   23.3800 C.ar  341  HIS341      0.1154
    124  CE1       23.0110   43.5770   21.8780 C.ar  341  HIS341      0.1986
    125  NE2       23.6100   43.3780   23.0400 N.ar  341  HIS341     -0.2212
    126  N         22.1140   43.5730   26.2660 N.3   343  THR343     -0.1218
    127  CA        21.7450   42.1390   26.3230 C.3   343  THR343      0.1862
    128  C         20.9770   41.9790   27.6370 C.2   343  THR343      0.2287
    129  O         21.5400   42.1270   28.7350 O.2   343  THR343     -0.2866
    130  CB        22.9890   41.2300   26.3060 C.3   343  THR343      0.1770
    131  OG1       23.7310   41.4460   25.1040 O.3   343  THR343     -0.2211
    132  CG2       22.5840   39.7730   26.3860 C.3   343  THR343      0.0375
    133  N         16.6100   43.8450   16.4820 N.3   373  LYS373     -0.1245
    134  CA        16.5540   43.7190   17.9400 C.3   373  LYS373      0.1561
    135  C         15.1920   44.2050   18.5310 C.2   373  LYS373      0.2260
    136  O         14.3010   44.6290   17.7950 O.2   373  LYS373     -0.2867
    137  CB        17.7850   44.3920   18.5760 C.3   373  LYS373      0.0271
    138  CG        19.1360   43.7220   18.0770 C.3   373  LYS373      0.0035
    139  CD        20.3680   44.5350   18.5700 C.3   373  LYS373      0.0206
    140  CE        21.6610   43.8210   18.0510 C.3   373  LYS373      0.1093
    141  NZ        22.8600   44.5820   18.5720 N.3   373  LYS373     -0.1314
@<TRIPOS>BOND
     1    10     9    2
     2     9     8    1
     3   133   134    1
     4     1     2    1
     5    14    12    1
     6     8     7    1
     7     8    11    1
     8     7     3   am
     9   136   135    2
    10    11    12    1
    11    12    13    1
    12   134   135    1
    13   134   137    1
    14     3     2    1
    15     3     4    2
    16   140   139    1
    17   140   141    1
    18   138   139    1
    19   138   137    1
    20     2     5    1
    21   114   113    1
    22    63    62    2
    23   113   115    1
    24   113   112    2
    25     6     5    1
    26   107   108    2
    27   107   106    1
    28   111   112    1
    29   111   110    1
    30   109   110    1
    31   109   106    1
    32    50    51    1
    33    62    61    1
    34    87    86    2
    35   106   105    1
    36    60    61    1
    37    60    52   am
    38    64    61    1
    39    64    65    1
    40    86    88   am
    41    86    85    1
    42    59    57   ar
    43    59    58   ar
    44    51    52    1
    45    51    54    1
    46    57    55   ar
    47    58    56   ar
    48   122   124   ar
    49   122   121   ar
    50    52    53    2
    51    67    65   ar
    52    67    69   ar
    53    55    56   ar
    54    55    54    1
    55    84    85    1
    56    84    81    1
    57    83    82    2
    58   104   102   ar
    59   124   125   ar
    60    65    66   ar
    61   120   121    1
    62   120   117    1
    63    82    81    1
    64   103   102   ar
    65   121   123   ar
    66   102   101    1
    67    69    70   ar
    68    81    80    1
    69   117   116    1
    70   117   118    1
    71   125   123   ar
    72    79    77   ar
    73    66    68   ar
    74   101   100    1
    75    99    98    2
    76    70    68   ar
    77    77    76    1
    78    77    78   ar
    79   100    97    1
    80    76    75    1
    81    98    97    1
    82   118   119    2
    83    74    73    2
    84    25    23   ar
    85    25    24   ar
    86   131   130    1
    87    97    96    1
    88    73    72    1
    89    23    21   ar
    90    24    22   ar
    91    75    72    1
    92    41    42    1
    93    41    40    1
    94   126   127    1
    95    71    72    1
    96   130   127    1
    97   130   132    1
    98   127   128    1
    99    21    20   ar
   100    22    20   ar
   101    42    36    1
   102    40    37    1
   103    20    19    1
   104   128   129    2
   105    35    34   ar
   106    35    33   ar
   107    34    32   ar
   108    95    93    1
   109    92    91    2
   110    15    16    1
   111    36    37    1
   112    36    28   am
   113    33    31   ar
   114    37    38    1
   115    32    31   ar
   116    16    19    1
   117    16    17    1
   118    91    90    1
   119    31    30    1
   120    49    47    1
   121    27    28    1
   122    27    30    1
   123    27    26    1
   124    38    43   am
   125    38    39    2
   126    93    94    1
   127    93    90    1
   128    28    29    2
   129    43    44    1
   130    90    89    1
   131    17    18    2
   132    47    44    1
   133    47    48    1
   134    44    45    1
   135    45    46    2
