@<TRIPOS>MOLECULE
tmp/2vfxE00.pdb
 79 76 0 0 0
SMALL
GASTEIGER

@<TRIPOS>ATOM
      1  N         82.2640  -18.2330   87.0700 N.3    34  TYR34      -0.1227
      2  CA        82.9520  -18.5490   85.8200 C.3    34  TYR34       0.1736
      3  C         82.3330  -17.7990   84.6260 C.2    34  TYR34       0.2595
      4  O         83.0340  -17.1060   83.8980 O.2    34  TYR34      -0.2718
      5  CB        82.9390  -20.0660   85.5280 C.3    34  TYR34       0.0548
      6  CG        83.4740  -20.3750   84.1480 C.ar   34  TYR34      -0.0200
      7  CD1       82.6130  -20.7210   83.1000 C.ar   34  TYR34      -0.0009
      8  CD2       84.8430  -20.2680   83.8760 C.ar   34  TYR34      -0.0009
      9  CE1       83.1030  -20.9570   81.8160 C.ar   34  TYR34       0.0417
     10  CE2       85.3440  -20.5120   82.5990 C.ar   34  TYR34       0.0417
     11  CZ        84.4730  -20.8540   81.5760 C.ar   34  TYR34       0.1957
     12  OH        84.9830  -21.0990   80.3170 O.3    34  TYR34      -0.2866
     13  N         81.0230  -17.9650   84.4390 N.am   35  GLN35      -0.1965
     14  CA        80.2690  -17.3600   83.3350 C.3    35  GLN35       0.1733
     15  C         80.2670  -15.8320   83.2930 C.2    35  GLN35       0.2616
     16  O         80.1660  -15.2590   82.2100 O.2    35  GLN35      -0.2715
     17  CB        78.8170  -17.8770   83.3140 C.3    35  GLN35       0.0408
     18  CG        78.6370  -19.3430   82.8420 C.3    35  GLN35       0.0908
     19  CD        79.0130  -19.5690   81.3920 C.2    35  GLN35       0.2608
     20  OE1       78.7340  -18.7350   80.5210 O.2    35  GLN35      -0.2717
     21  NE2       79.6460  -20.7040   81.1160 N.am   35  GLN35      -0.0878
     22  N         80.3530  -15.1680   84.4490 N.am   36  ARG36      -0.1963
     23  CA        80.3540  -13.6920   84.4560 C.3    36  ARG36       0.1729
     24  C         81.7690  -13.1200   84.5640 C.2    36  ARG36       0.2616
     25  O         81.9310  -11.9180   84.7820 O.2    36  ARG36      -0.2715
     26  CB        79.4160  -13.0950   85.5360 C.3    36  ARG36       0.0348
     27  CG        77.9770  -13.6660   85.5600 C.3    36  ARG36       0.0492
     28  CD        77.4400  -14.0820   84.1970 C.3    36  ARG36       0.2205
     29  NE        76.7020  -13.0210   83.5140 N.pl3  36  ARG36      -0.0865
     30  CZ        76.9290  -12.5890   82.2810 C.cat  36  ARG36       0.5346
     31  NH1       76.1600  -11.6380   81.7910 N.pl3  36  ARG36       0.1354
     32  NH2       77.9010  -13.0980   81.5300 N.pl3  36  ARG36       0.1354
     33  N         82.7760  -13.9860   84.3930 N.am   37  GLY37      -0.1955
     34  CA        84.1980  -13.6100   84.4590 C.3    37  GLY37       0.1869
     35  C         84.6450  -12.9590   85.7620 C.2    37  GLY37       0.2309
     36  O         85.5510  -12.1130   85.7650 O.2    37  GLY37      -0.2863
     37  N         89.2470  -17.6280   83.8720 N.3    41  SER41      -0.1217
     38  CA        88.9750  -19.0040   83.4640 C.3    41  SER41       0.1889
     39  C         90.0410  -20.0050   83.9210 C.2    41  SER41       0.2288
     40  O         89.7170  -21.1510   84.2150 O.2    41  SER41      -0.2866
     41  CB        88.7990  -19.0890   81.9440 C.3    41  SER41       0.2089
     42  OG        90.0340  -18.8760   81.2870 O.3    41  SER41      -0.2183
     43  N         72.8870  -17.0720   80.1920 N.3   140  VAL140     -0.1245
     44  CA        73.9370  -16.0840   79.8970 C.3   140  VAL140      0.1561
     45  C         74.0170  -15.7390   78.3910 C.2   140  VAL140      0.2260
     46  O         74.2640  -14.5870   78.0320 O.2   140  VAL140     -0.2867
     47  CB        75.2980  -16.6060   80.4220 C.3   140  VAL140      0.0252
     48  CG1       76.4600  -15.8050   79.8980 C.3   140  VAL140      0.0019
     49  CG2       75.2870  -16.6850   81.9590 C.3   140  VAL140      0.0019
     50  N         78.4260   -8.9610   78.4540 N.3   146  LEU146     -0.1231
     51  CA        79.1120   -8.3900   79.6070 C.3   146  LEU146      0.1693
     52  C         80.5780   -8.1190   79.2630 C.2   146  LEU146      0.2592
     53  O         81.3630   -9.0570   79.0900 O.2   146  LEU146     -0.2718
     54  CB        78.9950   -9.3310   80.8040 C.3   146  LEU146      0.0284
     55  CG        79.5450   -8.8170   82.1410 C.3   146  LEU146      0.0019
     56  CD1       78.9380   -7.4530   82.5170 C.3   146  LEU146      0.0001
     57  CD2       79.3200   -9.8370   83.2470 C.3   146  LEU146      0.0001
     58  N         80.9350   -6.8410   79.1370 N.am  147  GLU147     -0.1966
     59  CA        82.2970   -6.4500   78.7930 C.3   147  GLU147      0.1733
     60  C         82.9750   -5.5320   79.8140 C.2   147  GLU147      0.2616
     61  O         83.8320   -4.7220   79.4600 O.2   147  GLU147     -0.2715
     62  CB        82.3480   -5.8210   77.3980 C.3   147  GLU147      0.0429
     63  CG        81.8820   -6.7500   76.2920 C.3   147  GLU147      0.1163
     64  CD        81.9740   -6.1240   74.9190 C.2   147  GLU147      0.3649
     65  OE1       82.1400   -6.8840   73.9420 O.co2 147  GLU147     -0.2457
     66  OE2       81.9040   -4.8790   74.8060 O.co2 147  GLU147     -0.2457
     67  N         82.5770   -5.6570   81.0750 N.am  148  VAL148     -0.1963
     68  CA        83.1760   -4.8740   82.1520 C.3   148  VAL148      0.1727
     69  C         83.5270   -5.8760   83.2380 C.2   148  VAL148      0.2616
     70  O         82.8670   -6.9270   83.3570 O.2   148  VAL148     -0.2715
     71  CB        82.2380   -3.7720   82.7420 C.3   148  VAL148      0.0290
     72  CG1       82.0110   -2.6560   81.7400 C.3   148  VAL148      0.0023
     73  CG2       80.9190   -4.3520   83.2390 C.3   148  VAL148      0.0023
     74  N         84.5530   -5.5520   84.0190 N.am  149  SER149     -0.1950
     75  CA        84.9850   -6.4180   85.1120 C.3   149  SER149      0.1924
     76  C         84.0380   -6.1880   86.2740 C.2   149  SER149      0.2314
     77  O         83.6950   -5.0470   86.6150 O.2   149  SER149     -0.2863
     78  CB        86.4300   -6.1290   85.5060 C.3   149  SER149      0.2116
     79  OG        87.2930   -6.3760   84.4150 O.3   149  SER149     -0.2180
@<TRIPOS>BOND
     1    65    64   ar
     2    66    64   ar
     3    64    63    1
     4    63    62    1
     5    62    59    1
     6    46    45    2
     7    45    44    1
     8    50    51    1
     9    59    58    1
    10    59    60    1
    11    53    52    2
    12    58    52   am
    13    52    51    1
    14    61    60    2
    15    51    54    1
    16    60    67   am
    17    44    43    1
    18    44    47    1
    19    48    47    1
    20    12    11    1
    21    47    49    1
    22    20    19    2
    23    54    55    1
    24    67    68    1
    25    21    19   am
    26    42    41    1
    27    19    18    1
    28    32    30    1
    29    11     9   ar
    30    11    10   ar
    31    72    71    1
    32    31    30    1
    33     9     7   ar
    34    41    38    1
    35    55    56    1
    36    55    57    1
    37    68    71    1
    38    68    69    1
    39    16    15    2
    40    30    29    2
    41    10     8   ar
    42    71    73    1
    43    18    17    1
    44     7     6   ar
    45    69    70    2
    46    69    74   am
    47    15    14    1
    48    15    22   am
    49    17    14    1
    50    14    13    1
    51    38    37    1
    52    38    39    1
    53    29    28    1
    54     8     6   ar
    55     4     3    2
    56    39    40    2
    57    74    75    1
    58     6     5    1
    59    28    27    1
    60    33    34    1
    61    33    24   am
    62    79    78    1
    63    13     3   am
    64    22    23    1
    65    23    24    1
    66    23    26    1
    67    34    35    1
    68    24    25    2
    69     3     2    1
    70    75    78    1
    71    75    76    1
    72     5     2    1
    73    26    27    1
    74    35    36    2
    75     2     1    1
    76    76    77    2
