@<TRIPOS>MOLECULE
tmp/2vfxI00.pdb
 80 78 0 0 0
SMALL
GASTEIGER

@<TRIPOS>ATOM
      1  N         81.7480   22.1290    9.9090 N.3    34  TYR34      -0.1227
      2  CA        81.0290   22.4490    8.6890 C.3    34  TYR34       0.1736
      3  C         81.6680   21.7310    7.4850 C.2    34  TYR34       0.2595
      4  O         80.9830   21.0390    6.7410 O.2    34  TYR34      -0.2718
      5  CB        80.9840   23.9650    8.4480 C.3    34  TYR34       0.0548
      6  CG        80.4860   24.2870    7.0610 C.ar   34  TYR34      -0.0200
      7  CD1       81.3770   24.6160    6.0370 C.ar   34  TYR34      -0.0009
      8  CD2       79.1260   24.2120    6.7590 C.ar   34  TYR34      -0.0009
      9  CE1       80.9240   24.8750    4.7450 C.ar   34  TYR34       0.0417
     10  CE2       78.6600   24.4750    5.4720 C.ar   34  TYR34       0.0417
     11  CZ        79.5680   24.8030    4.4720 C.ar   34  TYR34       0.1957
     12  OH        79.1030   25.0670    3.2010 O.3    34  TYR34      -0.2866
     13  N         82.9790   21.8940    7.3130 N.am   35  GLN35      -0.1965
     14  CA        83.7180   21.2850    6.1910 C.3    35  GLN35       0.1733
     15  C         83.7200   19.7540    6.1500 C.2    35  GLN35       0.2616
     16  O         83.8110   19.1810    5.0670 O.2    35  GLN35      -0.2715
     17  CB        85.1650   21.8010    6.1330 C.3    35  GLN35       0.0408
     18  CG        85.3280   23.2730    5.6810 C.3    35  GLN35       0.0908
     19  CD        84.9650   23.4920    4.2290 C.2    35  GLN35       0.2608
     20  OE1       85.2480   22.6460    3.3660 O.2    35  GLN35      -0.2717
     21  NE2       84.3360   24.6230    3.9390 N.am   35  GLN35      -0.0878
     22  N         83.6530   19.0930    7.3080 N.am   36  ARG36      -0.1963
     23  CA        83.6490   17.6210    7.3160 C.3    36  ARG36       0.1729
     24  C         82.2350   17.0390    7.4190 C.2    36  ARG36       0.2616
     25  O         82.0720   15.8380    7.6380 O.2    36  ARG36      -0.2715
     26  CB        84.5680   17.0330    8.4030 C.3    36  ARG36       0.0348
     27  CG        86.0220   17.5900    8.4420 C.3    36  ARG36       0.0492
     28  CD        86.5960   17.9810    7.0890 C.3    36  ARG36       0.2205
     29  NE        87.3210   16.9020    6.4120 N.pl3  36  ARG36      -0.0865
     30  CZ        87.1030   16.4750    5.1660 C.cat  36  ARG36       0.5346
     31  NH1       87.8610   15.5190    4.6740 N.pl3  36  ARG36       0.1354
     32  NH2       86.1560   17.0030    4.3970 N.pl3  36  ARG36       0.1354
     33  N         81.2300   17.9060    7.2670 N.am   37  GLY37      -0.1955
     34  CA        79.8120   17.5390    7.3260 C.3    37  GLY37       0.1869
     35  C         79.3560   16.8980    8.6300 C.2    37  GLY37       0.2309
     36  O         78.4440   16.0650    8.6290 O.2    37  GLY37      -0.2863
     37  N         74.7910   21.6330    6.7660 N.3    41  SER41      -0.1217
     38  CA        75.0520   23.0280    6.4030 C.3    41  SER41       0.1889
     39  C         73.9690   24.0010    6.8810 C.2    41  SER41       0.2288
     40  O         74.2750   25.1440    7.2250 O.2    41  SER41      -0.2866
     41  CB        75.2580   23.1620    4.8870 C.3    41  SER41       0.2089
     42  OG        74.1660   22.6050    4.1780 O.3    41  SER41      -0.2183
     43  N         88.3210   12.5950   -0.7320 N.3   141  LEU141     -0.1231
     44  CA        86.9120   12.9450   -0.6840 C.3   141  LEU141      0.1693
     45  C         86.2420   12.1710    0.4560 C.2   141  LEU141      0.2592
     46  O         86.4030   10.9530    0.5700 O.2   141  LEU141     -0.2718
     47  CB        86.2480   12.6360   -2.0170 C.3   141  LEU141      0.0284
     48  CG        84.8520   13.1820   -2.3130 C.3   141  LEU141      0.0019
     49  CD1       84.7430   14.6690   -1.9570 C.3   141  LEU141      0.0001
     50  CD2       84.5700   12.9630   -3.7810 C.3   141  LEU141      0.0001
     51  N         85.5280   12.9030    1.3090 N.am  142  LEU142     -0.1966
     52  CA        84.8370   12.3160    2.4580 C.3   142  LEU142      0.1728
     53  C         83.3820   12.0430    2.1040 C.2   142  LEU142      0.2616
     54  O         82.5920   12.9800    1.9280 O.2   142  LEU142     -0.2715
     55  CB        84.9410   13.2440    3.6600 C.3   142  LEU142      0.0311
     56  CG        84.4390   12.7350    5.0120 C.3   142  LEU142      0.0022
     57  CD1       85.0240   11.3610    5.3390 C.3   142  LEU142      0.0001
     58  CD2       84.7820   13.7460    6.1050 C.3   142  LEU142      0.0001
     59  N         83.0420   10.7620    1.9680 N.am  143  GLU143     -0.1963
     60  CA        81.6850   10.3580    1.6130 C.3   143  GLU143      0.1733
     61  C         81.0050    9.4630    2.6560 C.2   143  GLU143      0.2616
     62  O         80.1140    8.6630    2.3340 O.2   143  GLU143     -0.2715
     63  CB        81.6730    9.6970    0.2370 C.3   143  GLU143      0.0429
     64  CG        82.2020   10.6100   -0.8580 C.3   143  GLU143      0.1163
     65  CD        82.1830    9.9720   -2.2290 C.2   143  GLU143      0.3649
     66  OE1       82.2980   10.7250   -3.2160 O.co2 143  GLU143     -0.2457
     67  OE2       82.0580    8.7320   -2.3320 O.co2 143  GLU143     -0.2457
     68  N         81.4220    9.6010    3.9080 N.am  144  VAL144     -0.1963
     69  CA        80.8160    8.8280    4.9960 C.3   144  VAL144      0.1727
     70  C         80.4770    9.8280    6.0960 C.2   144  VAL144      0.2616
     71  O         81.1370   10.8730    6.2280 O.2   144  VAL144     -0.2715
     72  CB        81.7360    7.6980    5.5420 C.3   144  VAL144      0.0290
     73  CG1       82.0230    6.6570    4.4620 C.3   144  VAL144      0.0023
     74  CG2       83.0190    8.2540    6.1010 C.3   144  VAL144      0.0023
     75  N         79.4520    9.5010    6.8690 N.am  145  SER145     -0.1950
     76  CA        79.0020   10.3460    7.9640 C.3   145  SER145      0.1924
     77  C         79.9390   10.1310    9.1290 C.2   145  SER145      0.2314
     78  O         80.2790    8.9990    9.4690 O.2   145  SER145     -0.2863
     79  CB        77.5630   10.0020    8.3460 C.3   145  SER145      0.2116
     80  OG        76.6950   10.2830    7.2670 O.3   145  SER145     -0.2180
@<TRIPOS>BOND
     1    50    48    1
     2    66    65   ar
     3    67    65   ar
     4    48    47    1
     5    48    49    1
     6    65    64    1
     7    47    44    1
     8    64    63    1
     9    43    44    1
    10    44    45    1
    11    63    60    1
    12    45    46    2
    13    45    51   am
    14    51    52    1
    15    60    59    1
    16    60    61    1
    17    54    53    2
    18    59    53   am
    19    53    52    1
    20    62    61    2
    21    52    55    1
    22    61    68   am
    23    12    11    1
    24    20    19    2
    25    55    56    1
    26    68    69    1
    27    21    19   am
    28    42    41    1
    29    19    18    1
    30    32    30    1
    31    73    72    1
    32    11     9   ar
    33    11    10   ar
    34    31    30    1
    35     9     7   ar
    36    41    38    1
    37    69    72    1
    38    69    70    1
    39    56    57    1
    40    56    58    1
    41    16    15    2
    42    30    29    2
    43    10     8   ar
    44    72    74    1
    45    18    17    1
    46     7     6   ar
    47    70    71    2
    48    70    75   am
    49    17    14    1
    50    15    14    1
    51    15    22   am
    52    14    13    1
    53    38    37    1
    54    38    39    1
    55    29    28    1
    56     4     3    2
    57     8     6   ar
    58    75    76    1
    59    39    40    2
    60     6     5    1
    61    28    27    1
    62    80    79    1
    63    33    34    1
    64    33    24   am
    65    22    23    1
    66    13     3   am
    67    23    24    1
    68    23    26    1
    69    34    35    1
    70    24    25    2
    71     3     2    1
    72    76    79    1
    73    76    77    1
    74    26    27    1
    75     5     2    1
    76    36    35    2
    77     2     1    1
    78    77    78    2
