@<TRIPOS>MOLECULE
tmp/2vfxK00.pdb
 86 84 0 0 0
SMALL
GASTEIGER

@<TRIPOS>ATOM
      1  N         73.6040  -36.7000  -10.7160 N.3    34  TYR34      -0.1227
      2  CA        74.2780  -37.1800   -9.5310 C.3    34  TYR34       0.1736
      3  C         73.3790  -37.0240   -8.2990 C.2    34  TYR34       0.2595
      4  O         73.1380  -37.9890   -7.5660 O.2    34  TYR34      -0.2718
      5  CB        75.6090  -36.4350   -9.3080 C.3    34  TYR34       0.0548
      6  CG        76.1680  -36.7270   -7.9360 C.ar   34  TYR34      -0.0200
      7  CD1       76.0150  -35.8110   -6.8950 C.ar   34  TYR34      -0.0009
      8  CD2       76.7890  -37.9510   -7.6590 C.ar   34  TYR34      -0.0009
      9  CE1       76.4930  -36.0890   -5.6200 C.ar   34  TYR34       0.0417
     10  CE2       77.2800  -38.2380   -6.3840 C.ar   34  TYR34       0.0417
     11  CZ        77.1290  -37.3020   -5.3740 C.ar   34  TYR34       0.1957
     12  OH        77.5970  -37.5680   -4.1060 O.3    34  TYR34      -0.2866
     13  N         72.8790  -35.8070   -8.0930 N.am   35  GLN35      -0.1965
     14  CA        72.0170  -35.4780   -6.9430 C.3    35  GLN35       0.1733
     15  C         70.7060  -36.2530   -6.8220 C.2    35  GLN35       0.2616
     16  O         70.2610  -36.5310   -5.6980 O.2    35  GLN35      -0.2715
     17  CB        71.7320  -33.9750   -6.8930 C.3    35  GLN35       0.0408
     18  CG        72.9400  -33.1400   -6.4450 C.3    35  GLN35       0.0908
     19  CD        73.2980  -33.3610   -4.9990 C.2    35  GLN35       0.2608
     20  OE1       72.4250  -33.5000   -4.1420 O.2    35  GLN35      -0.2717
     21  NE2       74.5900  -33.4000   -4.7130 N.am   35  GLN35      -0.0878
     22  N         70.1120  -36.6280   -7.9550 N.am   36  ARG36      -0.1963
     23  CA        68.8580  -37.3880   -7.9410 C.3    36  ARG36       0.1729
     24  C         69.0810  -38.8930   -8.1270 C.2    36  ARG36       0.2616
     25  O         68.1280  -39.6380   -8.3510 O.2    36  ARG36      -0.2715
     26  CB        67.8360  -36.8570   -8.9670 C.3    36  ARG36       0.0348
     27  CG        67.6010  -35.3270   -8.9780 C.3    36  ARG36       0.0492
     28  CD        67.5900  -34.6720   -7.5800 C.3    36  ARG36       0.2205
     29  NE        66.2650  -34.6090   -6.9630 N.pl3  36  ARG36      -0.0865
     30  CZ        65.9840  -35.0450   -5.7380 C.cat  36  ARG36       0.5346
     31  NH1       64.7660  -34.9050   -5.2540 N.pl3  36  ARG36       0.1354
     32  NH2       66.9230  -35.6020   -4.9800 N.pl3  36  ARG36       0.1354
     33  N         70.3430  -39.3170   -8.0230 N.am   37  GLY37      -0.1955
     34  CA        70.7590  -40.7180   -8.1480 C.3    37  GLY37       0.1869
     35  C         70.3970  -41.4400   -9.4360 C.2    37  GLY37       0.2309
     36  O         70.1370  -42.6510   -9.4100 O.2    37  GLY37      -0.2863
     37  N         76.7350  -43.1340   -7.7550 N.3    41  SER41      -0.1217
     38  CA        77.7830  -42.2020   -7.3480 C.3    41  SER41       0.1889
     39  C         79.1670  -42.5680   -7.8700 C.2    41  SER41       0.2288
     40  O         79.9330  -41.6880   -8.2430 O.2    41  SER41      -0.2866
     41  CB        77.8250  -42.0870   -5.8290 C.3    41  SER41       0.2089
     42  OG        78.2320  -43.3290   -5.2720 O.3    41  SER41      -0.2183
     43  N         62.2410  -36.0230    0.3630 N.3   145  LEU145     -0.1231
     44  CA        63.2660  -37.0660    0.2500 C.3   145  LEU145      0.1693
     45  C         62.9080  -37.9820   -0.9250 C.2   145  LEU145      0.2592
     46  O         61.7420  -38.4090   -1.0630 O.2   145  LEU145     -0.2718
     47  CB        63.3630  -37.8800    1.5320 C.3   145  LEU145      0.0284
     48  CG        64.7760  -38.1840    2.0540 C.3   145  LEU145      0.0019
     49  CD1       65.7180  -38.7630    0.9790 C.3   145  LEU145      0.0001
     50  CD2       65.4060  -36.9440    2.7090 C.3   145  LEU145      0.0001
     51  N         63.8950  -38.2500   -1.7790 N.am  146  LEU146     -0.1966
     52  CA        63.7000  -39.1060   -2.9480 C.3   146  LEU146      0.1728
     53  C         64.1750  -40.5090   -2.5940 C.2   146  LEU146      0.2616
     54  O         65.3640  -40.7310   -2.3450 O.2   146  LEU146     -0.2715
     55  CB        64.4320  -38.5620   -4.1760 C.3   146  LEU146      0.0311
     56  CG        64.2210  -39.2890   -5.5180 C.3   146  LEU146      0.0022
     57  CD1       62.7410  -39.3460   -5.9080 C.3   146  LEU146      0.0001
     58  CD2       65.0130  -38.5960   -6.6190 C.3   146  LEU146      0.0001
     59  N         63.2340  -41.4450   -2.5500 N.am  147  GLU147     -0.1963
     60  CA        63.5520  -42.8180   -2.1930 C.3   147  GLU147      0.1733
     61  C         63.1630  -43.8420   -3.2450 C.2   147  GLU147      0.2616
     62  O         63.0680  -45.0360   -2.9400 O.2   147  GLU147     -0.2715
     63  CB        62.9360  -43.1640   -0.8350 C.3   147  GLU147      0.0429
     64  CG        63.5870  -42.3830    0.2990 C.3   147  GLU147      0.1163
     65  CD        63.0610  -42.7530    1.6730 C.2   147  GLU147      0.3649
     66  OE1       63.6100  -42.2190    2.6550 O.co2 147  GLU147     -0.2457
     67  OE2       62.1220  -43.5710    1.7870 O.co2 147  GLU147     -0.2457
     68  N         62.9410  -43.3810   -4.4740 N.am  148  VAL148     -0.1963
     69  CA        62.5910  -44.2920   -5.5750 C.3   148  VAL148      0.1727
     70  C         63.6150  -44.0830   -6.6850 C.2   148  VAL148      0.2617
     71  O         64.1440  -42.9760   -6.8180 O.2   148  VAL148     -0.2715
     72  CB        61.1530  -44.0850   -6.1200 C.3   148  VAL148      0.0290
     73  CG1       60.1200  -44.5470   -5.1180 C.3   148  VAL148      0.0023
     74  CG2       60.9030  -42.6430   -6.5390 C.3   148  VAL148      0.0023
     75  N         63.9070  -45.1350   -7.4540 N.am  149  SER149     -0.1936
     76  CA        64.8780  -45.0210   -8.5560 C.3   149  SER149      0.2055
     77  C         64.1900  -44.2990   -9.6930 C.2   149  SER149      0.2643
     78  O         63.0220  -44.5590   -9.9950 O.2   149  SER149     -0.2714
     79  CB        65.4090  -46.3830   -9.0170 C.3   149  SER149      0.2130
     80  OG        65.9150  -47.1280   -7.9300 O.3   149  SER149     -0.2179
     81  N         64.9150  -43.3670  -10.2990 N.am  150  CYS150     -0.1967
     82  CA        64.3950  -42.5420  -11.3720 C.3   150  CYS150      0.1712
     83  C         65.2420  -42.5420  -12.6510 C.2   150  CYS150      0.2296
     84  O         66.4210  -42.9190  -12.6430 O.2   150  CYS150     -0.2864
     85  CB        64.3170  -41.0980  -10.8680 C.3   150  CYS150      0.0983
     86  SG        63.0900  -40.8200   -9.5620 S.3   150  CYS150     -0.0798
@<TRIPOS>BOND
     1    83    84    2
     2    83    82    1
     3    82    85    1
     4    82    81    1
     5    85    86    1
     6     1     2    1
     7    81    77   am
     8    78    77    2
     9    77    76    1
    10     2     5    1
    11     2     3    1
    12    35    36    2
    13    35    34    1
    14     5     6    1
    15    79    76    1
    16    79    80    1
    17    27    26    1
    18    27    28    1
    19    26    23    1
    20    76    75    1
    21    25    24    2
    22     3    13   am
    23     3     4    2
    24    40    39    2
    25    34    33    1
    26    24    33   am
    27    24    23    1
    28    13    14    1
    29    22    23    1
    30    22    15   am
    31     6     8   ar
    32     6     7   ar
    33    39    38    1
    34    37    38    1
    35     8    10   ar
    36    28    29    1
    37    75    70   am
    38    38    41    1
    39    29    30    2
    40    14    17    1
    41    14    15    1
    42     7     9   ar
    43    17    18    1
    44    15    16    2
    45    71    70    2
    46    70    69    1
    47    58    56    1
    48    74    72    1
    49    18    19    1
    50    10    11   ar
    51    72    69    1
    52    72    73    1
    53    57    56    1
    54    41    42    1
    55    30    31    1
    56    30    32    1
    57     9    11   ar
    58    69    68    1
    59    56    55    1
    60    11    12    1
    61    19    21   am
    62    19    20    2
    63    68    61   am
    64    55    52    1
    65    61    62    2
    66    61    60    1
    67    52    53    1
    68    52    51    1
    69    53    59   am
    70    53    54    2
    71    59    60    1
    72    60    63    1
    73    51    45   am
    74    46    45    2
    75    45    44    1
    76    63    64    1
    77    44    43    1
    78    44    47    1
    79    64    65    1
    80    49    48    1
    81    47    48    1
    82    65    67   ar
    83    65    66   ar
    84    48    50    1
