@<TRIPOS>MOLECULE
tmp/2vg0A00.pdb
 175 168 0 0 0
SMALL
GASTEIGER

@<TRIPOS>ATOM
      1  N         24.9970    4.5810   -3.6340 N.3    10  CYS10      -0.1221
      2  CA        24.1650    5.2410   -2.6260 C.3    10  CYS10       0.1808
      3  C         23.8890    6.7220   -2.9080 C.2    10  CYS10       0.2601
      4  O         24.3170    7.6030   -2.1630 O.2    10  CYS10      -0.2717
      5  CB        24.8610    5.1170   -1.2850 C.3    10  CYS10       0.0970
      6  SG        25.2390    3.4550   -0.8990 S.3    10  CYS10      -0.0800
      7  N         23.0940    6.9730   -3.9260 N.am   11  ASP11      -0.1959
      8  CA        22.8660    8.3040   -4.4320 C.3    11  ASP11       0.1840
      9  C         21.6800    8.9740   -3.7640 C.2    11  ASP11       0.2623
     10  O         20.7430    8.2980   -3.3530 O.2    11  ASP11      -0.2715
     11  CB        22.5590    8.2160   -5.9230 C.3    11  ASP11       0.1450
     12  CG        23.2330    9.2820   -6.7060 C.2    11  ASP11       0.3671
     13  OD1       23.8460   10.1800   -6.0880 O.co2  11  ASP11      -0.2456
     14  OD2       23.1530    9.2310   -7.9570 O.co2  11  ASP11      -0.2456
     15  N         21.7140   10.3000   -3.7260 N.am   12  GLY12      -0.1940
     16  CA        20.5590   11.0960   -3.3160 C.3    12  GLY12       0.2014
     17  C         20.6000   11.6020   -1.9030 C.2    12  GLY12       0.2639
     18  O         19.5930   12.0660   -1.3910 O.2    12  GLY12      -0.2714
     19  N         21.7500   11.5060   -1.2480 N.am   13  ASN13      -0.1958
     20  CA        21.8340   11.9100    0.1590 C.3    13  ASN13       0.1819
     21  C         21.5750   13.3990    0.3460 C.2    13  ASN13       0.2621
     22  O         20.8610   13.8060    1.2640 O.2    13  ASN13      -0.2715
     23  CB        23.2010   11.5490    0.7240 C.3    13  ASN13       0.1195
     24  CG        23.4390   10.0690    0.7040 C.2    13  ASN13       0.2630
     25  OD1       22.6970    9.3260    1.3090 O.2    13  ASN13      -0.2716
     26  ND2       24.4270    9.6280   -0.0620 N.am   13  ASN13      -0.0877
     27  N         22.1450   14.2190   -0.5300 N.am   14  ARG14      -0.1963
     28  CA        21.9730   15.6700   -0.3800 C.3    14  ARG14       0.1729
     29  C         20.5560   16.0730   -0.7570 C.2    14  ARG14       0.2616
     30  O         19.9050   16.8370   -0.0410 O.2    14  ARG14      -0.2715
     31  CB        23.0240   16.4310   -1.1910 C.3    14  ARG14       0.0348
     32  CG        24.4350   16.1890   -0.6920 C.3    14  ARG14       0.0492
     33  CD        25.4660   16.9870   -1.4790 C.3    14  ARG14       0.2205
     34  NE        25.4390   16.6140   -2.8800 N.pl3  14  ARG14      -0.0865
     35  CZ        26.1870   17.1930   -3.8060 C.cat  14  ARG14       0.5346
     36  NH1       27.0190   18.1640   -3.4600 N.pl3  14  ARG14       0.1354
     37  NH2       26.0990   16.8050   -5.0740 N.pl3  14  ARG14       0.1354
     38  N         20.0660   15.5360   -1.8630 N.am   15  ARG15      -0.1977
     39  CA        18.6860   15.7770   -2.2810 C.3    15  ARG15       0.1597
     40  C         17.7000   15.3780   -1.1950 C.2    15  ARG15       0.2287
     41  O         16.7170   16.0770   -0.9500 O.2    15  ARG15      -0.2864
     42  CB        18.3810   15.0060   -3.5750 C.3    15  ARG15       0.0334
     43  CG        18.8760   15.7040   -4.7870 C.3    15  ARG15       0.0492
     44  CD        18.7970   14.8090   -6.0020 C.3    15  ARG15       0.2205
     45  NE        19.9320   13.9100   -6.0640 N.pl3  15  ARG15      -0.0865
     46  CZ        20.1000   12.9890   -7.0120 C.cat  15  ARG15       0.5346
     47  NH1       19.1930   12.8450   -7.9660 N.pl3  15  ARG15       0.1354
     48  NH2       21.1670   12.2060   -6.9910 N.pl3  15  ARG15       0.1354
     49  N         23.8540   12.5370    4.6120 N.3    29  TYR29      -0.1241
     50  CA        24.9170   11.5410    4.6750 C.3    29  TYR29       0.1605
     51  C         24.8140   10.6540    5.9090 C.2    29  TYR29       0.2264
     52  O         25.0710    9.4610    5.8270 O.2    29  TYR29      -0.2867
     53  CB        26.2790   12.2130    4.6170 C.3    29  TYR29       0.0534
     54  CG        26.5170   12.8290    3.2650 C.ar   29  TYR29      -0.0201
     55  CD1       26.3150   12.0720    2.1170 C.ar   29  TYR29      -0.0009
     56  CD2       26.9240   14.1310    3.1340 C.ar   29  TYR29      -0.0009
     57  CE1       26.5110   12.5850    0.8890 C.ar   29  TYR29       0.0417
     58  CE2       27.1370   14.6780    1.8570 C.ar   29  TYR29       0.0417
     59  CZ        26.9060   13.8860    0.7550 C.ar   29  TYR29       0.1957
     60  OH        27.0890   14.3370   -0.5350 O.3    29  TYR29      -0.2866
     61  N         22.0510    8.2440    5.2670 N.3    32  GLY32      -0.1210
     62  CA        22.5740    7.2620    4.3210 C.3    32  GLY32       0.1956
     63  C         23.4840    6.2530    4.9900 C.2    32  GLY32       0.2611
     64  O         23.4300    5.0550    4.7010 O.2    32  GLY32      -0.2717
     65  N         24.3110    6.7300    5.9140 N.am   33  ALA33      -0.1979
     66  CA        25.1910    5.8440    6.6830 C.3    33  ALA33       0.1597
     67  C         24.3870    4.8260    7.5040 C.2    33  ALA33       0.2287
     68  O         24.7560    3.6470    7.5980 O.2    33  ALA33      -0.2864
     69  CB        26.0840    6.6610    7.6060 C.3    33  ALA33       0.0319
     70  N         23.2200    2.2420    5.0420 N.3    36  ILE36      -0.1245
     71  CA        24.2910    1.3230    4.6600 C.3    36  ILE36       0.1561
     72  C         24.3590    0.1830    5.6590 C.2    36  ILE36       0.2260
     73  O         24.3950   -0.9850    5.2700 O.2    36  ILE36      -0.2867
     74  CB        25.6580    2.0330    4.5310 C.3    36  ILE36       0.0252
     75  CG1       25.7090    2.7550    3.2000 C.3    36  ILE36       0.0019
     76  CG2       26.8190    1.0050    4.6160 C.3    36  ILE36       0.0019
     77  CD1       26.7230    3.8640    3.1300 C.3    36  ILE36       0.0001
     78  N         29.2710    1.8740   -2.3790 N.3    54  TYR54      -0.1227
     79  CA        29.9960    3.0100   -2.9190 C.3    54  TYR54       0.1736
     80  C         29.8990    4.1750   -1.9660 C.2    54  TYR54       0.2595
     81  O         28.8680    4.8670   -1.9030 O.2    54  TYR54      -0.2718
     82  CB        29.4130    3.4110   -4.2640 C.3    54  TYR54       0.0548
     83  CG        30.3440    4.1740   -5.1580 C.ar   54  TYR54      -0.0200
     84  CD1       29.9190    4.5620   -6.4140 C.ar   54  TYR54      -0.0009
     85  CD2       31.6650    4.4770   -4.7870 C.ar   54  TYR54      -0.0009
     86  CE1       30.7490    5.2370   -7.2800 C.ar   54  TYR54       0.0417
     87  CE2       32.5030    5.1600   -5.6680 C.ar   54  TYR54       0.0417
     88  CZ        32.0330    5.5210   -6.9050 C.ar   54  TYR54       0.1957
     89  OH        32.8310    6.1860   -7.7810 O.3    54  TYR54      -0.2866
     90  N         30.9610    4.3990   -1.2100 N.am   55  LEU55      -0.1966
     91  CA        30.9480    5.4110   -0.1760 C.3    55  LEU55       0.1728
     92  C         31.5450    6.7410   -0.6280 C.2    55  LEU55       0.2616
     93  O         31.0660    7.7860   -0.2200 O.2    55  LEU55      -0.2715
     94  CB        31.6590    4.9180    1.0690 C.3    55  LEU55       0.0311
     95  CG        31.0890    3.6580    1.7230 C.3    55  LEU55       0.0022
     96  CD1       31.8590    3.3370    3.0070 C.3    55  LEU55       0.0001
     97  CD2       29.5840    3.7860    1.9890 C.3    55  LEU55       0.0001
     98  N         32.5870    6.7160   -1.4430 N.am   56  LEU56      -0.1963
     99  CA        33.2370    7.9640   -1.8440 C.3    56  LEU56       0.1728
    100  C         33.9130    7.8160   -3.1890 C.2    56  LEU56       0.2616
    101  O         34.8360    7.0390   -3.3390 O.2    56  LEU56      -0.2715
    102  CB        34.2380    8.3980   -0.7860 C.3    56  LEU56       0.0311
    103  CG        34.9020    9.7660   -0.9410 C.3    56  LEU56       0.0022
    104  CD1       33.8750   10.8670   -0.6950 C.3    56  LEU56       0.0001
    105  CD2       36.0860    9.8640    0.0420 C.3    56  LEU56       0.0001
    106  N         33.3950    8.5530   -4.1720 N.am   57  SER57      -0.1950
    107  CA        33.9380    8.5730   -5.5100 C.3    57  SER57       0.1924
    108  C         35.0390    9.5990   -5.5960 C.2    57  SER57       0.2314
    109  O         35.1150   10.5200   -4.7860 O.2    57  SER57      -0.2863
    110  CB        32.8380    8.9450   -6.5070 C.3    57  SER57       0.2116
    111  OG        32.3840   10.2800   -6.3050 O.3    57  SER57      -0.2180
    112  N         33.4360   12.9920   -5.7310 N.3    60  ASN60      -0.1240
    113  CA        33.0470   13.5430   -4.4270 C.3    60  ASN60       0.1653
    114  C         34.1720   14.3280   -3.7730 C.2    60  ASN60       0.2266
    115  O         33.9280   15.2340   -2.9830 O.2    60  ASN60      -0.2867
    116  CB        32.6700   12.4410   -3.4280 C.3    60  ASN60       0.1155
    117  CG        31.4310   11.6370   -3.8300 C.2    60  ASN60       0.2627
    118  OD1       31.2970   10.4770   -3.4290 O.2    60  ASN60      -0.2716
    119  ND2       30.5130   12.2480   -4.5820 N.am   60  ASN60      -0.0877
    120  N         34.7460   18.4240   -3.7720 N.3    63  ARG63      -0.1245
    121  CA        33.7700   19.3290   -3.1890 C.3    63  ARG63       0.1563
    122  C         34.3280   20.1730   -2.0590 C.2    63  ARG63       0.2260
    123  O         35.4710   19.9890   -1.6210 O.2    63  ARG63      -0.2867
    124  CB        32.5380   18.5420   -2.7420 C.3    63  ARG63       0.0307
    125  CG        31.4620   18.5270   -3.8270 C.3    63  ARG63       0.0489
    126  CD        30.7140   17.2310   -3.8810 C.3    63  ARG63       0.2205
    127  NE        30.3640   16.7520   -2.5490 N.pl3  63  ARG63      -0.0865
    128  CZ        29.5210   15.7560   -2.3160 C.cat  63  ARG63       0.5346
    129  NH1       28.9020   15.1260   -3.3160 N.pl3  63  ARG63       0.1354
    130  NH2       29.2820   15.4120   -1.0640 N.pl3  63  ARG63       0.1354
    131  N         31.8680   14.6760    5.5510 N.3    71  LEU71      -0.1245
    132  CA        31.4710   13.4580    4.8570 C.3    71  LEU71       0.1561
    133  C         32.4510   12.3320    5.1480 C.2    71  LEU71       0.2260
    134  O         32.0570   11.1840    5.4020 O.2    71  LEU71      -0.2867
    135  CB        31.4180   13.6980    3.3490 C.3    71  LEU71       0.0270
    136  CG        31.1770   12.4720    2.4700 C.3    71  LEU71       0.0019
    137  CD1       29.9000   11.7120    2.8430 C.3    71  LEU71       0.0001
    138  CD2       31.1690   12.8990    0.9970 C.3    71  LEU71       0.0001
    139  N         31.8920   10.8570    8.5320 N.3    74  ILE74      -0.1231
    140  CA        30.7280    9.9680    8.4940 C.3    74  ILE74       0.1692
    141  C         31.0880    8.6280    7.8640 C.2    74  ILE74       0.2591
    142  O         30.7020    7.5790    8.3860 O.2    74  ILE74      -0.2718
    143  CB        29.5160   10.6390    7.7800 C.3    74  ILE74       0.0266
    144  CG1       28.9660   11.7620    8.6590 C.3    74  ILE74       0.0019
    145  CG2       28.4120    9.6360    7.4430 C.3    74  ILE74       0.0020
    146  CD1       28.2070   12.8350    7.9030 C.3    74  ILE74       0.0001
    147  N         31.8270    8.6620    6.7610 N.am   75  ILE75      -0.1980
    148  CA        32.2730    7.4320    6.1020 C.3    75  ILE75       0.1595
    149  C         33.1630    6.5890    7.0210 C.2    75  ILE75       0.2287
    150  O         32.9840    5.3540    7.1360 O.2    75  ILE75      -0.2864
    151  CB        33.0020    7.7540    4.7770 C.3    75  ILE75       0.0276
    152  CG1       32.0130    8.2560    3.7460 C.3    75  ILE75       0.0022
    153  CG2       33.7520    6.5320    4.2220 C.3    75  ILE75       0.0022
    154  CD1       32.7150    8.8400    2.4790 C.3    75  ILE75       0.0001
    155  N         31.0280    4.9060    9.4760 N.3    78  VAL78      -0.1245
    156  CA        30.3450    3.8100    8.7650 C.3    78  VAL78       0.1561
    157  C         31.2300    2.5660    8.7110 C.2    78  VAL78       0.2260
    158  O         30.8170    1.4590    9.0810 O.2    78  VAL78      -0.2867
    159  CB        29.9830    4.2260    7.2710 C.3    78  VAL78       0.0252
    160  CG1       29.5940    3.0180    6.4160 C.3    78  VAL78       0.0019
    161  CG2       28.9010    5.2410    7.2540 C.3    78  VAL78       0.0019
    162  N         18.8210    7.4640   -1.5090 N.3   209  TRP209     -0.1241
    163  CA        19.4370    6.4300   -0.6960 C.3   209  TRP209      0.1605
    164  C         19.0220    6.4440    0.7790 C.2   209  TRP209      0.2264
    165  O         18.7010    5.3950    1.3290 O.2   209  TRP209     -0.2867
    166  CB        20.9620    6.4110   -0.8500 C.3   209  TRP209      0.0550
    167  CG        21.5440    5.4700    0.1130 C.ar  209  TRP209      0.0003
    168  CD1       22.2220    5.7820    1.2380 C.ar  209  TRP209      0.0946
    169  CD2       21.4200    4.0390    0.0980 C.ar  209  TRP209      0.0152
    170  NE1       22.5600    4.6490    1.9100 N.ar  209  TRP209     -0.2442
    171  CE2       22.0890    3.5600    1.2310 C.ar  209  TRP209      0.0810
    172  CE3       20.8290    3.1200   -0.7790 C.ar  209  TRP209      0.0012
    173  CZ2       22.1590    2.1980    1.5370 C.ar  209  TRP209      0.0191
    174  CZ3       20.9130    1.7610   -0.4850 C.ar  209  TRP209      0.0001
    175  CH2       21.5710    1.3220    0.6680 C.ar  209  TRP209      0.0015
@<TRIPOS>BOND
     1    47    46    1
     2    14    12   ar
     3    89    88    1
     4    86    88   ar
     5    86    84   ar
     6    46    48    1
     7    46    45    2
     8    88    87   ar
     9    12    13   ar
    10    12    11    1
    11   110   111    1
    12   110   107    1
    13    84    83   ar
    14    45    44    1
    15    44    43    1
    16    11     8    1
    17   112   113    1
    18    87    85   ar
    19   108   107    1
    20   108   109    2
    21   107   106    1
    22    83    85   ar
    23    83    82    1
    24    37    35    1
    25    43    42    1
    26   119   117   am
    27     8     7    1
    28     8     9    1
    29   113   114    1
    30   113   116    1
    31    82    79    1
    32   106   100   am
    33     7     3   am
    34   126   125    1
    35   126   127    1
    36   117   118    2
    37   117   116    1
    38   125   124    1
    39    35    36    1
    40    35    34    2
    41   114   115    2
    42   120   121    1
    43     9    15   am
    44     9    10    2
    45    15    16    1
    46     1     2    1
    47    42    39    1
    48   101   100    2
    49    16    17    1
    50   129   128    1
    51   100    99    1
    52   121   124    1
    53   121   122    1
    54    79    78    1
    55    79    80    1
    56     3     2    1
    57     3     4    2
    58    34    33    1
    59     2     5    1
    60   127   128    2
    61   128   130    1
    62    39    38    1
    63    39    40    1
    64   122   123    2
    65    80    81    2
    66    80    90   am
    67    17    18    2
    68    17    19   am
    69    38    29   am
    70    99    98    1
    71    99   102    1
    72   162   163    1
    73    33    32    1
    74    98    92   am
    75     5     6    1
    76    19    20    1
    77    90    91    1
    78    40    41    2
    79    31    32    1
    80    31    28    1
    81   103   102    1
    82   103   104    1
    83   103   105    1
    84   166   163    1
    85   166   167    1
    86   172   174   ar
    87   172   169   ar
    88    29    28    1
    89    29    30    2
    90   163   164    1
    91    92    93    2
    92    92    91    1
    93    60    59    1
    94    27    28    1
    95    27    21   am
    96   174   175   ar
    97    91    94    1
    98    26    24   am
    99   169   167   ar
   100   169   171   ar
   101   167   168   ar
   102    20    21    1
   103    20    23    1
   104    21    22    2
   105   175   173   ar
   106    24    23    1
   107    24    25    2
   108    59    57   ar
   109    59    58   ar
   110   164   165    2
   111    57    55   ar
   112   138   136    1
   113    94    95    1
   114   171   173   ar
   115   171   170   ar
   116   168   170   ar
   117    95    97    1
   118    95    96    1
   119    58    56   ar
   120    55    54   ar
   121   136   137    1
   122   136   135    1
   123   154   152    1
   124    77    75    1
   125    56    54   ar
   126    75    74    1
   127    54    53    1
   128   135   132    1
   129   152   151    1
   130   153   151    1
   131    62    63    1
   132    62    61    1
   133    74    76    1
   134    74    71    1
   135    49    50    1
   136    53    50    1
   137    71    70    1
   138    71    72    1
   139    50    51    1
   140    64    63    2
   141   151   148    1
   142   132   133    1
   143   132   131    1
   144    63    65   am
   145   133   134    2
   146    73    72    2
   147    52    51    2
   148    65    66    1
   149   148   147    1
   150   148   149    1
   151   160   159    1
   152    66    67    1
   153    66    69    1
   154   147   141   am
   155   149   150    2
   156   161   159    1
   157   159   156    1
   158   145   143    1
   159    67    68    2
   160   143   140    1
   161   143   144    1
   162   141   142    2
   163   141   140    1
   164   146   144    1
   165   140   139    1
   166   157   156    1
   167   157   158    2
   168   156   155    1
