@<TRIPOS>MOLECULE
tmp/2vg1B00.pdb
 186 174 0 0 0
SMALL
GASTEIGER

@<TRIPOS>ATOM
      1  N          7.5900   -1.7200   28.0980 N.3    10  LEU10      -0.1231
      2  CA         7.4680   -3.1600   27.9700 C.3    10  LEU10       0.1693
      3  C          8.8190   -3.7170   28.4000 C.2    10  LEU10       0.2592
      4  O          9.8200   -3.5460   27.6920 O.2    10  LEU10      -0.2718
      5  CB         7.1590   -3.5710   26.5310 C.3    10  LEU10       0.0284
      6  CG         5.7740   -3.2130   25.9800 C.3    10  LEU10       0.0019
      7  CD1        5.8640   -1.8870   25.2060 C.3    10  LEU10       0.0001
      8  CD2        5.2200   -4.3130   25.0920 C.3    10  LEU10       0.0001
      9  N          8.8230   -4.3840   29.5400 N.am   11  CYS11      -0.1956
     10  CA        10.0300   -4.8030   30.2450 C.3    11  CYS11       0.1843
     11  C         10.5060   -6.1700   29.7490 C.2    11  CYS11       0.2625
     12  O         10.5130   -7.1570   30.4920 O.2    11  CYS11      -0.2714
     13  CB         9.7190   -4.8680   31.7460 C.3    11  CYS11       0.0997
     14  SG         9.0160   -3.3540   32.3460 S.3    11  CYS11      -0.0797
     15  N         10.9120   -6.2300   28.4930 N.am   12  ASP12      -0.1971
     16  CA        11.2690   -7.5050   27.8930 C.3    12  ASP12       0.1709
     17  C         12.7140   -7.8970   28.1770 C.2    12  ASP12       0.2293
     18  O         13.5750   -7.0400   28.3920 O.2    12  ASP12      -0.2864
     19  CB        11.0360   -7.4660   26.3850 C.3    12  ASP12       0.1436
     20  CG        10.4420   -8.7470   25.8550 C.2    12  ASP12       0.3671
     21  OD1       10.5890   -9.8020   26.5030 O.co2  12  ASP12      -0.2456
     22  OD2        9.8310   -8.7090   24.7660 O.co2  12  ASP12      -0.2456
     23  N         13.8910  -10.4000   30.4820 N.3    14  ASN14      -0.1240
     24  CA        14.3220  -10.7940   31.8280 C.3    14  ASN14       0.1653
     25  C         14.9750  -12.1690   31.9010 C.2    14  ASN14       0.2266
     26  O         16.0590  -12.3250   32.4680 O.2    14  ASN14      -0.2867
     27  CB        13.1450  -10.6990   32.7930 C.3    14  ASN14       0.1155
     28  CG        12.6210   -9.2980   32.9010 C.2    14  ASN14       0.2627
     29  OD1       13.2820   -8.4250   33.4410 O.2    14  ASN14      -0.2716
     30  ND2       11.4490   -9.0600   32.3370 N.am   14  ASN14      -0.0877
     31  N         13.5470  -12.1660   36.5690 N.3    30  TYR30      -0.1241
     32  CA        12.3630  -11.4120   36.9600 C.3    30  TYR30       0.1605
     33  C         12.6490  -10.5960   38.2140 C.2    30  TYR30       0.2264
     34  O         12.1530   -9.4870   38.3550 O.2    30  TYR30      -0.2867
     35  CB        11.1660  -12.3160   37.2360 C.3    30  TYR30       0.0534
     36  CG        10.6350  -13.0930   36.0600 C.ar   30  TYR30      -0.0201
     37  CD1       10.3980  -12.4850   34.8350 C.ar   30  TYR30      -0.0009
     38  CD2       10.3050  -14.4300   36.2120 C.ar   30  TYR30      -0.0009
     39  CE1        9.8770  -13.2400   33.7450 C.ar   30  TYR30       0.0417
     40  CE2        9.7900  -15.1680   35.1700 C.ar   30  TYR30       0.0417
     41  CZ         9.5880  -14.5790   33.9490 C.ar   30  TYR30       0.1957
     42  OH         9.0580  -15.3810   32.9470 O.3    30  TYR30      -0.2866
     43  N         14.6740   -7.7190   37.1550 N.3    33  GLY33      -0.1210
     44  CA        13.7530   -6.8560   36.4340 C.3    33  GLY33       0.1956
     45  C         12.8200   -6.0540   37.3410 C.2    33  GLY33       0.2611
     46  O         12.5070   -4.9040   37.0600 O.2    33  GLY33      -0.2717
     47  N         12.3610   -6.6750   38.4260 N.am   34  ALA34      -0.1979
     48  CA        11.5140   -6.0180   39.4000 C.3    34  ALA34       0.1597
     49  C         12.2460   -4.8630   40.0670 C.2    34  ALA34       0.2287
     50  O         11.6890   -3.7900   40.2680 O.2    34  ALA34      -0.2864
     51  CB        11.0610   -7.0230   40.4480 C.3    34  ALA34       0.0319
     52  N         12.2990   -2.0400   37.5910 N.3    37  ILE37      -0.1245
     53  CA        11.0140   -1.3400   37.4940 C.3    37  ILE37       0.1561
     54  C         10.9270   -0.2280   38.5370 C.2    37  ILE37       0.2260
     55  O         10.5790    0.8940   38.2170 O.2    37  ILE37      -0.2867
     56  CB         9.8200   -2.3010   37.6420 C.3    37  ILE37       0.0252
     57  CG1        9.6270   -3.0870   36.3370 C.3    37  ILE37       0.0019
     58  CG2        8.5550   -1.5220   37.9710 C.3    37  ILE37       0.0019
     59  CD1        8.7060   -4.2860   36.4610 C.3    37  ILE37       0.0001
     60  N          4.3320   -2.7590   31.8580 N.3    55  TYR55      -0.1227
     61  CA         3.6930   -4.0140   31.4530 C.3    55  TYR55       0.1736
     62  C          4.2610   -5.1240   32.3080 C.2    55  TYR55       0.2595
     63  O          5.4060   -5.5540   32.0990 O.2    55  TYR55      -0.2718
     64  CB         3.9550   -4.3340   29.9680 C.3    55  TYR55       0.0548
     65  CG         2.9150   -5.2090   29.2780 C.ar   55  TYR55      -0.0200
     66  CD1        2.9530   -5.3890   27.9020 C.ar   55  TYR55      -0.0009
     67  CD2        1.8670   -5.8170   29.9730 C.ar   55  TYR55      -0.0009
     68  CE1        2.0220   -6.1810   27.2500 C.ar   55  TYR55       0.0417
     69  CE2        0.9250   -6.6150   29.3140 C.ar   55  TYR55       0.0417
     70  CZ         1.0070   -6.7860   27.9530 C.ar   55  TYR55       0.1957
     71  OH         0.0630   -7.5490   27.2950 O.3    55  TYR55      -0.2866
     72  N          3.4550   -5.6140   33.2480 N.am   56  LEU56      -0.1980
     73  CA         3.8990   -6.6600   34.1830 C.3    56  LEU56       0.1596
     74  C          3.4750   -8.0730   33.8030 C.2    56  LEU56       0.2287
     75  O          4.2390   -9.0310   34.0120 O.2    56  LEU56      -0.2864
     76  CB         3.3910   -6.3410   35.5780 C.3    56  LEU56       0.0297
     77  CG         3.8620   -5.0050   36.1600 C.3    56  LEU56       0.0022
     78  CD1        3.3900   -4.9240   37.5980 C.3    56  LEU56       0.0001
     79  CD2        5.3670   -4.8310   36.0600 C.3    56  LEU56       0.0001
     80  N          1.0240  -10.1190   30.6690 N.3    58  SER58      -0.1217
     81  CA         0.0800  -10.2280   29.5720 C.3    58  SER58       0.1889
     82  C         -0.7460  -11.4910   29.7530 C.2    58  SER58       0.2288
     83  O         -0.3300  -12.4240   30.4530 O.2    58  SER58      -0.2866
     84  CB         0.8140  -10.3240   28.2410 C.3    58  SER58       0.2089
     85  OG         1.2290  -11.6550   28.0210 O.3    58  SER58      -0.2183
     86  N         -1.0400  -13.6850   27.5680 N.3    60  GLU60      -0.1231
     87  CA        -0.1580  -14.7230   27.0070 C.3    60  GLU60       0.1699
     88  C          0.8330  -15.2830   28.0420 C.2    60  GLU60       0.2592
     89  O          1.1260  -16.4810   28.0350 O.2    60  GLU60      -0.2718
     90  CB         0.6160  -14.1820   25.7950 C.3    60  GLU60       0.0402
     91  CG         1.4180  -15.2540   25.0470 C.3    60  GLU60       0.1161
     92  CD         2.0990  -14.7410   23.7860 C.2    60  GLU60       0.3649
     93  OE1        1.9140  -13.5540   23.4280 O.co2  60  GLU60      -0.2457
     94  OE2        2.8250  -15.5360   23.1510 O.co2  60  GLU60      -0.2457
     95  N          1.3480  -14.4180   28.9190 N.am   61  ASN61      -0.1974
     96  CA         2.3460  -14.8190   29.9250 C.3    61  ASN61       0.1688
     97  C          1.8210  -15.8490   30.9320 C.2    61  ASN61       0.2292
     98  O          2.6030  -16.5470   31.5930 O.2    61  ASN61      -0.2864
     99  CB         2.8570  -13.6050   30.7070 C.3    61  ASN61       0.1181
    100  CG         3.4670  -12.5260   29.8170 C.2    61  ASN61       0.2629
    101  OD1        3.3070  -11.3370   30.0940 O.2    61  ASN61      -0.2716
    102  ND2        4.1550  -12.9300   28.7440 N.am   61  ASN61      -0.0877
    103  N          2.7040  -19.8560   30.9540 N.3    64  ARG64      -0.1245
    104  CA         4.0070  -20.3860   31.3480 C.3    64  ARG64       0.1563
    105  C          3.8960  -21.4530   32.4310 C.2    64  ARG64       0.2260
    106  O          2.8300  -21.6460   33.0280 O.2    64  ARG64      -0.2867
    107  CB         4.9230  -19.2450   31.7950 C.3    64  ARG64       0.0307
    108  CG         5.3240  -18.3540   30.6300 C.3    64  ARG64       0.0489
    109  CD         5.9820  -17.0650   31.0700 C.3    64  ARG64       0.2205
    110  NE         6.3320  -16.2210   29.9260 N.pl3  64  ARG64      -0.0865
    111  CZ         6.9020  -15.0190   30.0160 C.cat  64  ARG64       0.5346
    112  NH1        7.1980  -14.5010   31.2010 N.pl3  64  ARG64       0.1354
    113  NH2        7.1780  -14.3280   28.9140 N.pl3  64  ARG64       0.1354
    114  N          6.8520  -15.5430   39.3510 N.3    72  LEU72      -0.1245
    115  CA         6.5640  -14.2990   38.6590 C.3    72  LEU72       0.1561
    116  C          5.4070  -13.5240   39.3110 C.2    72  LEU72       0.2260
    117  O          5.4960  -12.3150   39.5080 O.2    72  LEU72      -0.2867
    118  CB         6.2520  -14.5860   37.1860 C.3    72  LEU72       0.0270
    119  CG         5.8090  -13.3860   36.3610 C.3    72  LEU72       0.0019
    120  CD1        6.8390  -12.2450   36.3840 C.3    72  LEU72       0.0001
    121  CD2        5.5180  -13.8450   34.9190 C.3    72  LEU72       0.0001
    122  N          6.5260  -12.1030   42.5750 N.3    75  ILE75      -0.1231
    123  CA         7.4130  -10.9810   42.2770 C.3    75  ILE75       0.1692
    124  C          6.6290   -9.7300   41.8530 C.2    75  ILE75       0.2591
    125  O          6.9140   -8.6120   42.3280 O.2    75  ILE75      -0.2718
    126  CB         8.4520  -11.3710   41.2260 C.3    75  ILE75       0.0266
    127  CG1        9.4250  -12.4140   41.8010 C.3    75  ILE75       0.0019
    128  CG2        9.2310  -10.1530   40.7480 C.3    75  ILE75       0.0020
    129  CD1       10.1760  -13.2270   40.7560 C.3    75  ILE75       0.0001
    130  N          5.6350   -9.9210   40.9870 N.am   76  ILE76      -0.1980
    131  CA         4.7750   -8.8190   40.5420 C.3    76  ILE76       0.1595
    132  C          4.0380   -8.2050   41.7280 C.2    76  ILE76       0.2287
    133  O          3.9600   -6.9830   41.8510 O.2    76  ILE76      -0.2864
    134  CB         3.7570   -9.2880   39.4830 C.3    76  ILE76       0.0276
    135  CG1        4.4490   -9.5110   38.1460 C.3    76  ILE76       0.0022
    136  CG2        2.6480   -8.2360   39.2930 C.3    76  ILE76       0.0022
    137  CD1        3.6130  -10.3770   37.1940 C.3    76  ILE76       0.0001
    138  N          6.4030   -6.0610   43.5920 N.3    79  VAL79      -0.1245
    139  CA         6.6690   -4.8660   42.7800 C.3    79  VAL79       0.1561
    140  C          5.5710   -3.8390   43.0130 C.2    79  VAL79       0.2260
    141  O          5.8160   -2.6560   43.2820 O.2    79  VAL79      -0.2867
    142  CB         6.7660   -5.2250   41.2420 C.3    79  VAL79       0.0252
    143  CG1        6.5640   -4.0200   40.3450 C.3    79  VAL79       0.0019
    144  CG2        8.0940   -5.8700   40.9450 C.3    79  VAL79       0.0019
    145  N         10.6390   -0.3160   24.3990 N.3   183  ARG183     -0.1245
    146  CA        10.7830   -1.7800   24.4920 C.3   183  ARG183      0.1563
    147  C         12.2480   -2.1900   24.4100 C.2   183  ARG183      0.2260
    148  O         13.0350   -1.5970   23.6830 O.2   183  ARG183     -0.2867
    149  CB         9.9450   -2.5520   23.4610 C.3   183  ARG183      0.0307
    150  CG         9.8450   -4.0630   23.7850 C.3   183  ARG183      0.0489
    151  CD         8.7000   -4.7590   23.0530 C.3   183  ARG183      0.2205
    152  NE         8.5080   -6.1410   23.5170 N.pl3 183  ARG183     -0.0865
    153  CZ         7.5220   -6.9390   23.1090 C.cat 183  ARG183      0.5346
    154  NH1        6.6300   -6.5080   22.2270 N.pl3 183  ARG183      0.1354
    155  NH2        7.4220   -8.1800   23.5720 N.pl3 183  ARG183      0.1354
    156  N          8.1400   -4.7120   18.4330 N.3   189  ARG189     -0.1245
    157  CA         6.6960   -4.9110   18.3480 C.3   189  ARG189      0.1563
    158  C          6.0390   -4.3190   19.5740 C.2   189  ARG189      0.2260
    159  O          6.6930   -4.1050   20.5950 O.2   189  ARG189     -0.2867
    160  CB         6.3100   -6.3890   18.3270 C.3   189  ARG189      0.0307
    161  CG         7.2110   -7.3270   17.5950 C.3   189  ARG189      0.0489
    162  CD         6.6100   -8.7410   17.6780 C.3   189  ARG189      0.2205
    163  NE         6.7250   -9.2750   19.0350 N.pl3 189  ARG189     -0.0865
    164  CZ         7.8490   -9.7820   19.5390 C.cat 189  ARG189      0.5346
    165  NH1        8.9460   -9.8270   18.8000 N.pl3 189  ARG189      0.1354
    166  NH2        7.8820  -10.2390   20.7870 N.pl3 189  ARG189      0.1354
    167  N          2.9980   -5.7740   20.7730 N.3   191  SER191     -0.1217
    168  CA         2.3080   -6.9030   21.3930 C.3   191  SER191      0.1889
    169  C          0.9330   -6.5660   21.9720 C.2   191  SER191      0.2288
    170  O          0.4920   -7.1380   22.9880 O.2   191  SER191     -0.2866
    171  CB         3.2240   -7.5430   22.4230 C.3   191  SER191      0.2089
    172  OG         4.3170   -8.1070   21.7330 O.3   191  SER191     -0.2183
    173  N         15.8990   -5.9230   29.7140 N.3   210  TRP210     -0.1241
    174  CA        15.3060   -5.0810   30.7290 C.3   210  TRP210      0.1605
    175  C         16.1560   -5.0010   32.0230 C.2   210  TRP210      0.2264
    176  O         16.4080   -3.9080   32.5170 O.2   210  TRP210     -0.2867
    177  CB        13.8730   -5.4940   31.0550 C.3   210  TRP210      0.0550
    178  CG        13.3500   -4.6700   32.1760 C.ar  210  TRP210      0.0003
    179  CD1       13.0550   -5.0990   33.4340 C.ar  210  TRP210      0.0946
    180  CD2       13.1410   -3.2510   32.1730 C.ar  210  TRP210      0.0152
    181  NE1       12.6390   -4.0430   34.2050 N.ar  210  TRP210     -0.2442
    182  CE2       12.7020   -2.8940   33.4680 C.ar  210  TRP210      0.0810
    183  CE3       13.2760   -2.2500   31.2090 C.ar  210  TRP210      0.0012
    184  CZ2       12.3660   -1.5770   33.8180 C.ar  210  TRP210      0.0191
    185  CZ3       12.9550   -0.9200   31.5650 C.ar  210  TRP210      0.0001
    186  CH2       12.5120   -0.6110   32.8660 C.ar  210  TRP210      0.0015
@<TRIPOS>BOND
     1   161   162    1
     2   161   160    1
     3   162   163    1
     4   160   157    1
     5   157   156    1
     6   157   158    1
     7   165   164    1
     8   163   164    2
     9   164   166    1
    10   158   159    2
    11   167   168    1
    12   168   169    1
    13   168   171    1
    14   172   171    1
    15   169   170    2
    16   154   153    1
    17   151   152    1
    18   151   150    1
    19   153   152    2
    20   153   155    1
    21    94    92   ar
    22    93    92   ar
    23   149   150    1
    24   149   146    1
    25   148   147    2
    26    92    91    1
    27   145   146    1
    28   147   146    1
    29    22    20   ar
    30    91    90    1
    31     8     6    1
    32     7     6    1
    33    90    87    1
    34    20    19    1
    35    20    21   ar
    36     6     5    1
    37    19    16    1
    38     5     2    1
    39    87    86    1
    40    87    88    1
    41    68    66   ar
    42    68    70   ar
    43    71    70    1
    44     4     3    2
    45    16    17    1
    46    16    15    1
    47    66    65   ar
    48    70    69   ar
    49     2     1    1
    50     2     3    1
    51    85    84    1
    52    89    88    2
    53    88    95   am
    54    17    18    2
    55    84    81    1
    56     3     9   am
    57    15    11   am
    58   102   100   am
    59   113   111    1
    60    95    96    1
    61    65    64    1
    62    65    67   ar
    63    69    67   ar
    64     9    10    1
    65    81    82    1
    66    81    80    1
    67   173   174    1
    68    11    10    1
    69    11    12    2
    70    82    83    2
    71   100   101    2
    72   100    99    1
    73    96    99    1
    74    96    97    1
    75   110   111    2
    76   110   109    1
    77    64    61    1
    78   111   112    1
    79    10    13    1
    80    23    24    1
    81   108   109    1
    82   108   107    1
    83   174   177    1
    84   174   175    1
    85    97    98    2
    86   103   104    1
    87   177   178    1
    88   183   185   ar
    89   183   180   ar
    90   104   107    1
    91   104   105    1
    92    61    60    1
    93    61    62    1
    94   185   186   ar
    95    13    14    1
    96    24    25    1
    97    24    27    1
    98    25    26    2
    99   175   176    2
   100    63    62    2
   101   180   178   ar
   102   180   182   ar
   103   178   179   ar
   104    62    72   am
   105    30    28   am
   106   105   106    2
   107    27    28    1
   108   186   184   ar
   109    28    29    2
   110    42    41    1
   111    72    73    1
   112   179   181   ar
   113   182   184   ar
   114   182   181   ar
   115    39    41   ar
   116    39    37   ar
   117    74    75    2
   118    74    73    1
   119    41    40   ar
   120    73    76    1
   121    37    36   ar
   122   121   119    1
   123    40    38   ar
   124    76    77    1
   125    79    77    1
   126    36    38   ar
   127    36    35    1
   128    77    78    1
   129    57    59    1
   130    57    56    1
   131   119   120    1
   132   119   118    1
   133    44    43    1
   134    44    45    1
   135    31    32    1
   136    32    35    1
   137    32    33    1
   138    46    45    2
   139   118   115    1
   140   137   135    1
   141    45    47   am
   142    53    52    1
   143    53    56    1
   144    53    54    1
   145    56    58    1
   146   135   134    1
   147    33    34    2
   148    55    54    2
   149    47    48    1
   150   115   116    1
   151   115   114    1
   152   136   134    1
   153   116   117    2
   154    48    49    1
   155    48    51    1
   156   134   131    1
   157    49    50    2
   158   143   142    1
   159   131   130    1
   160   131   132    1
   161   128   126    1
   162   129   127    1
   163   144   142    1
   164   130   124   am
   165   126   127    1
   166   126   123    1
   167   142   139    1
   168   132   133    2
   169   124   123    1
   170   124   125    2
   171   123   122    1
   172   139   140    1
   173   139   138    1
   174   140   141    2
