@<TRIPOS>MOLECULE
tmp/2vg2B01.pdb
 128 119 0 0 0
SMALL
GASTEIGER

@<TRIPOS>ATOM
      1  N         37.6640   -7.3940    1.7530 N.3    62  VAL62      -0.1231
      2  CA        38.7280   -8.3090    1.3790 C.3    62  VAL62       0.1692
      3  C         39.4280   -8.7820    2.6600 C.2    62  VAL62       0.2592
      4  O         40.1410   -8.0260    3.3290 O.2    62  VAL62      -0.2718
      5  CB        39.7310   -7.6510    0.3910 C.3    62  VAL62       0.0266
      6  CG1       40.8380   -8.6450   -0.0020 C.3    62  VAL62       0.0020
      7  CG2       38.9960   -7.1640   -0.8460 C.3    62  VAL62       0.0020
      8  N         39.2040  -10.0500    2.9840 N.am   63  MET63      -0.1965
      9  CA        39.5880  -10.6310    4.2660 C.3    63  MET63       0.1736
     10  C         41.0070  -11.1310    4.1880 C.2    63  MET63       0.2616
     11  O         41.2530  -12.3110    3.9970 O.2    63  MET63      -0.2715
     12  CB        38.6340  -11.7670    4.6030 C.3    63  MET63       0.0427
     13  CG        37.1680  -11.2990    4.6900 C.3    63  MET63       0.0599
     14  SD        36.0770  -12.6980    4.9190 S.3    63  MET63      -0.1393
     15  CE        36.3010  -13.5360    3.3550 C.3    63  MET63       0.0692
     16  N         41.9510  -10.2150    4.3520 N.am   64  ASP64      -0.1971
     17  CA        43.3370  -10.4770    4.0110 C.3    64  ASP64       0.1709
     18  C         44.2060  -10.6730    5.2600 C.2    64  ASP64       0.2293
     19  O         43.9240  -10.1040    6.3130 O.2    64  ASP64      -0.2864
     20  CB        43.8370   -9.2960    3.1820 C.3    64  ASP64       0.1436
     21  CG        44.9780   -9.6560    2.2710 C.2    64  ASP64       0.3671
     22  OD1       45.4730  -10.7950    2.3630 O.co2  64  ASP64      -0.2456
     23  OD2       45.3900   -8.7890    1.4680 O.co2  64  ASP64      -0.2456
     24  N         45.2390  -13.8590    6.5980 N.3    66  ASN66      -0.1240
     25  CA        45.1000  -15.1570    7.2790 C.3    66  ASN66       0.1653
     26  C         46.4150  -15.9480    7.2760 C.2    66  ASN66       0.2266
     27  O         46.8760  -16.4080    8.3240 O.2    66  ASN66      -0.2867
     28  CB        43.9940  -16.0070    6.6410 C.3    66  ASN66       0.1155
     29  CG        42.5900  -15.4960    6.9460 C.2    66  ASN66       0.2627
     30  OD1       42.3650  -14.7880    7.9210 O.2    66  ASN66      -0.2716
     31  ND2       41.6290  -15.8650    6.1020 N.am   66  ASN66      -0.0877
     32  N         43.5050  -19.4480    8.1400 N.3    81  HIS81      -0.1241
     33  CA        42.2040  -19.4390    7.4940 C.3    81  HIS81       0.1621
     34  C         41.1300  -19.9930    8.4270 C.2    81  HIS81       0.2264
     35  O         40.0370  -19.4370    8.5210 O.2    81  HIS81      -0.2867
     36  CB        42.2490  -20.2130    6.1850 C.3    81  HIS81       0.0745
     37  CG        43.0540  -19.5370    5.1180 C.ar   81  HIS81       0.0817
     38  ND1       44.2270  -20.0640    4.6210 N.ar   81  HIS81      -0.2268
     39  CD2       42.8570  -18.3780    4.4600 C.ar   81  HIS81       0.1154
     40  CE1       44.7130  -19.2550    3.6970 C.ar   81  HIS81       0.1986
     41  NE2       43.9030  -18.2190    3.5880 N.ar   81  HIS81      -0.2212
     42  N         35.0050  -11.4270    0.0980 N.3   106  TYR106     -0.1227
     43  CA        35.8640  -12.0540   -0.9040 C.3   106  TYR106      0.1736
     44  C         36.4930  -13.3300   -0.3580 C.2   106  TYR106      0.2595
     45  O         37.5830  -13.2820    0.2000 O.2   106  TYR106     -0.2718
     46  CB        36.9980  -11.0930   -1.2890 C.3   106  TYR106      0.0548
     47  CG        37.5210  -11.2220   -2.7060 C.ar  106  TYR106     -0.0200
     48  CD1       38.5190  -10.3690   -3.1440 C.ar  106  TYR106     -0.0009
     49  CD2       36.9750  -12.1170   -3.6320 C.ar  106  TYR106     -0.0009
     50  CE1       38.9860  -10.4000   -4.4310 C.ar  106  TYR106      0.0417
     51  CE2       37.4600  -12.1520   -4.9510 C.ar  106  TYR106      0.0417
     52  CZ        38.4530  -11.2630   -5.3340 C.ar  106  TYR106      0.1957
     53  OH        38.9510  -11.2210   -6.6090 O.3   106  TYR106     -0.2866
     54  N         35.8100  -14.4630   -0.4900 N.am  107  ALA107     -0.1980
     55  CA        36.2860  -15.7100    0.0920 C.3   107  ALA107      0.1597
     56  C         37.3650  -16.3690   -0.7450 C.2   107  ALA107      0.2287
     57  O         38.3090  -16.9240   -0.1860 O.2   107  ALA107     -0.2864
     58  CB        35.1290  -16.6840    0.3620 C.3   107  ALA107      0.0319
     59  N         39.2880  -15.7310   -4.8510 N.3   109  SER109     -0.1217
     60  CA        39.3010  -15.0720   -6.1650 C.3   109  SER109      0.1889
     61  C         39.6150  -16.0120   -7.3350 C.2   109  SER109      0.2288
     62  O         40.2490  -17.0500   -7.1560 O.2   109  SER109     -0.2866
     63  CB        40.2800  -13.9100   -6.1790 C.3   109  SER109      0.2089
     64  OG        41.5530  -14.2850   -6.6120 O.3   109  SER109     -0.2183
     65  N         41.8410  -15.5570   -9.1910 N.3   111  GLU111     -0.1231
     66  CA        43.2960  -15.5130   -9.2890 C.3   111  GLU111      0.1699
     67  C         44.0020  -16.4210   -8.2460 C.2   111  GLU111      0.2592
     68  O         45.1890  -16.7280   -8.3930 O.2   111  GLU111     -0.2718
     69  CB        43.7670  -14.0530   -9.1890 C.3   111  GLU111      0.0402
     70  CG        43.5380  -13.2040  -10.4950 C.3   111  GLU111      0.1161
     71  CD        42.0770  -12.8260  -10.7540 C.2   111  GLU111      0.3649
     72  OE1       41.4510  -12.1580   -9.8930 O.co2 111  GLU111     -0.2457
     73  OE2       41.5520  -13.2050  -11.8300 O.co2 111  GLU111     -0.2457
     74  N         43.2630  -16.8600   -7.2180 N.am  112  ASN112     -0.1974
     75  CA        43.8090  -17.7030   -6.1320 C.3   112  ASN112      0.1688
     76  C         44.1550  -19.1440   -6.5280 C.2   112  ASN112      0.2292
     77  O         44.7860  -19.8640   -5.7550 O.2   112  ASN112     -0.2864
     78  CB        42.8530  -17.7230   -4.9280 C.3   112  ASN112      0.1181
     79  CG        42.7870  -16.3690   -4.1900 C.2   112  ASN112      0.2629
     80  OD1       41.8160  -16.0960   -3.4920 O.2   112  ASN112     -0.2716
     81  ND2       43.8330  -15.5410   -4.3270 N.am  112  ASN112     -0.0877
     82  N         47.7090  -20.2560   -6.1990 N.3   115  ARG115     -0.1245
     83  CA        48.2720  -20.7890   -4.9540 C.3   115  ARG115      0.1563
     84  C         48.5410  -22.2810   -5.0760 C.2   115  ARG115      0.2260
     85  O         48.1560  -22.9090   -6.0660 O.2   115  ARG115     -0.2867
     86  CB        47.3670  -20.4460   -3.7730 C.3   115  ARG115      0.0307
     87  CG        47.1790  -18.9440   -3.6280 C.3   115  ARG115      0.0489
     88  CD        46.4370  -18.5650   -2.3710 C.3   115  ARG115      0.2205
     89  NE        46.3050  -17.1120   -2.2430 N.pl3 115  ARG115     -0.0865
     90  CZ        45.7110  -16.5070   -1.2190 C.cat 115  ARG115      0.5346
     91  NH1       45.2310  -17.2260   -0.2100 N.pl3 115  ARG115      0.1354
     92  NH2       45.6110  -15.1800   -1.1880 N.pl3 115  ARG115      0.1354
     93  N         41.1400  -24.6170    0.8290 N.3   123  LEU123     -0.1245
     94  CA        40.1990  -23.4950    0.7810 C.3   123  LEU123      0.1561
     95  C         38.8550  -23.8860    0.1630 C.2   123  LEU123      0.2260
     96  O         37.8070  -23.3980    0.5860 O.2   123  LEU123     -0.2867
     97  CB        40.8120  -22.2980    0.0410 C.3   123  LEU123      0.0270
     98  CG        41.9160  -21.5430    0.7960 C.3   123  LEU123      0.0019
     99  CD1       42.6100  -20.5390   -0.1140 C.3   123  LEU123      0.0001
    100  CD2       41.3370  -20.8160    2.0090 C.3   123  LEU123      0.0001
    101  N         39.7400   -3.3270    3.3050 N.3   232  ARG232     -0.1245
    102  CA        40.7330   -4.3850    3.2070 C.3   232  ARG232      0.1563
    103  C         41.6530   -4.3780    4.4200 C.2   232  ARG232      0.2260
    104  O         42.0340   -3.3140    4.9120 O.2   232  ARG232     -0.2867
    105  CB        41.5580   -4.2190    1.9390 C.3   232  ARG232      0.0307
    106  CG        42.5030   -5.3790    1.7120 C.3   232  ARG232      0.0489
    107  CD        43.0210   -5.3690    0.2980 C.3   232  ARG232      0.2205
    108  NE        43.7900   -6.5810    0.0390 N.pl3 232  ARG232     -0.0865
    109  CZ        43.8520   -7.1900   -1.1390 C.cat 232  ARG232      0.5346
    110  NH1       43.1970   -6.7060   -2.1780 N.pl3 232  ARG232      0.1354
    111  NH2       44.5620   -8.2980   -1.2830 N.pl3 232  ARG232      0.1354
    112  N         44.8590   -2.2830   -2.2670 N.3   238  ARG238     -0.1245
    113  CA        44.4510   -2.7110   -3.6010 C.3   238  ARG238      0.1563
    114  C         43.0700   -3.3220   -3.5120 C.2   238  ARG238      0.2260
    115  O         42.6780   -3.8200   -2.4540 O.2   238  ARG238     -0.2867
    116  CB        45.4510   -3.7130   -4.1950 C.3   238  ARG238      0.0307
    117  CG        45.9430   -4.7930   -3.2420 C.3   238  ARG238      0.0489
    118  CD        46.9040   -5.7440   -3.9600 C.3   238  ARG238      0.2205
    119  NE        47.4440   -6.7940   -3.0860 N.pl3 238  ARG238     -0.0865
    120  CZ        48.6810   -6.8280   -2.5770 C.cat 238  ARG238      0.5346
    121  NH1       49.5570   -5.8560   -2.8030 N.pl3 238  ARG238      0.1354
    122  NH2       49.0480   -7.8460   -1.8070 N.pl3 238  ARG238      0.1354
    123  N         42.1110   -5.5840   -5.9070 N.3   240  SER240     -0.1217
    124  CA        42.3580   -6.9240   -6.4260 C.3   240  SER240      0.1889
    125  C         41.1300   -7.5310   -7.1160 C.2   240  SER240      0.2288
    126  O         40.7390   -8.6400   -6.7930 O.2   240  SER240     -0.2866
    127  CB        42.8440   -7.8490   -5.3050 C.3   240  SER240      0.2089
    128  OG        44.0600   -7.3890   -4.7250 O.3   240  SER240     -0.2183
@<TRIPOS>BOND
     1    73    71   ar
     2    71    70    1
     3    71    72   ar
     4    70    69    1
     5    66    65    1
     6    66    69    1
     7    66    67    1
     8    68    67    2
     9    67    74   am
    10    61    62    2
    11    61    60    1
    12    74    75    1
    13   125   126    2
    14   125   124    1
    15    64    63    1
    16    53    52    1
    17    76    75    1
    18    76    77    2
    19   124   123    1
    20   124   127    1
    21    82    83    1
    22    63    60    1
    23    60    59    1
    24    75    78    1
    25    85    84    2
    26    52    51   ar
    27    52    50   ar
    28   127   128    1
    29    84    83    1
    30    83    86    1
    31    51    49   ar
    32    78    79    1
    33    50    48   ar
    34    81    79   am
    35   116   113    1
    36   116   117    1
    37    79    80    2
    38   118   117    1
    39   118   119    1
    40    86    87    1
    41    49    47   ar
    42    87    88    1
    43   113   114    1
    44   113   112    1
    45   114   115    2
    46    48    47   ar
    47   119   120    2
    48   121   120    1
    49    47    46    1
    50   120   122    1
    51    88    89    1
    52    89    90    2
    53   110   109    1
    54    46    43    1
    55   111   109    1
    56    90    92    1
    57    90    91    1
    58   109   108    2
    59    43    44    1
    60    43    42    1
    61     7     5    1
    62    56    57    2
    63    56    55    1
    64    54    44   am
    65    54    55    1
    66    44    45    2
    67    99    98    1
    68     6     5    1
    69   108   107    1
    70    97    94    1
    71    97    98    1
    72    55    58    1
    73    95    96    2
    74    95    94    1
    75   107   106    1
    76     5     2    1
    77    94    93    1
    78    98   100    1
    79     2     1    1
    80     2     3    1
    81    23    21   ar
    82   106   105    1
    83   105   102    1
    84    21    22   ar
    85    21    20    1
    86     3     8   am
    87     3     4    2
    88     8     9    1
    89    20    17    1
    90   102   101    1
    91   102   103    1
    92    15    14    1
    93    41    40   ar
    94    41    39   ar
    95    40    38   ar
    96    11    10    2
    97    17    16    1
    98    17    18    1
    99    10     9    1
   100    10    16   am
   101     9    12    1
   102   103   104    2
   103    39    37   ar
   104    12    13    1
   105    38    37   ar
   106    13    14    1
   107    37    36    1
   108    18    19    2
   109    31    29   am
   110    36    33    1
   111    24    25    1
   112    28    29    1
   113    28    25    1
   114    29    30    2
   115    26    25    1
   116    26    27    2
   117    33    32    1
   118    33    34    1
   119    34    35    2
