@<TRIPOS>MOLECULE
tmp/2vg2B00.pdb
 84 80 0 0 0
SMALL
GASTEIGER

@<TRIPOS>ATOM
      1  N         39.2040  -10.0500    2.9840 N.3    63  MET63      -0.1230
      2  CA        39.5880  -10.6310    4.2660 C.3    63  MET63       0.1702
      3  C         41.0070  -11.1310    4.1880 C.2    63  MET63       0.2592
      4  O         41.2530  -12.3110    3.9970 O.2    63  MET63      -0.2718
      5  CB        38.6340  -11.7670    4.6030 C.3    63  MET63       0.0401
      6  CG        37.1680  -11.2990    4.6900 C.3    63  MET63       0.0596
      7  SD        36.0770  -12.6980    4.9190 S.3    63  MET63      -0.1393
      8  CE        36.3010  -13.5360    3.3550 C.3    63  MET63       0.0692
      9  N         41.9510  -10.2150    4.3520 N.am   64  ASP64      -0.1960
     10  CA        43.3370  -10.4770    4.0110 C.3    64  ASP64       0.1840
     11  C         44.2060  -10.6730    5.2600 C.2    64  ASP64       0.2623
     12  O         43.9240  -10.1040    6.3130 O.2    64  ASP64      -0.2715
     13  CB        43.8370   -9.2960    3.1820 C.3    64  ASP64       0.1450
     14  CG        44.9780   -9.6560    2.2710 C.2    64  ASP64       0.3671
     15  OD1       45.4730  -10.7950    2.3630 O.co2  64  ASP64      -0.2456
     16  OD2       45.3900   -8.7890    1.4680 O.co2  64  ASP64      -0.2456
     17  N         45.2470  -11.4950    5.1340 N.am   65  GLY65      -0.1940
     18  CA        46.2490  -11.6750    6.1950 C.3    65  GLY65       0.2014
     19  C         46.1260  -12.9520    7.0050 C.2    65  GLY65       0.2639
     20  O         46.8320  -13.1130    7.9940 O.2    65  GLY65      -0.2714
     21  N         45.2390  -13.8590    6.5980 N.am   66  ASN66      -0.1958
     22  CA        45.1000  -15.1570    7.2790 C.3    66  ASN66       0.1819
     23  C         46.4150  -15.9480    7.2760 C.2    66  ASN66       0.2622
     24  O         46.8760  -16.4080    8.3240 O.2    66  ASN66      -0.2715
     25  CB        43.9940  -16.0070    6.6410 C.3    66  ASN66       0.1195
     26  CG        42.5900  -15.4960    6.9460 C.2    66  ASN66       0.2630
     27  OD1       42.3650  -14.7880    7.9210 O.2    66  ASN66      -0.2716
     28  ND2       41.6290  -15.8650    6.1020 N.am   66  ASN66      -0.0877
     29  N         47.0150  -16.0930    6.1000 N.am   67  GLY67      -0.1940
     30  CA        48.2720  -16.8380    5.9670 C.3    67  GLY67       0.2014
     31  C         49.4190  -16.2120    6.7290 C.2    67  GLY67       0.2638
     32  O         50.1630  -16.9040    7.4120 O.2    67  GLY67      -0.2714
     33  N         49.5550  -14.8950    6.6160 N.am   68  ARG68      -0.1977
     34  CA        50.5990  -14.1500    7.3330 C.3    68  ARG68       0.1597
     35  C         50.5370  -14.3650    8.8400 C.2    68  ARG68       0.2287
     36  O         51.5540  -14.6510    9.4810 O.2    68  ARG68      -0.2864
     37  CB        50.4780  -12.6510    7.0410 C.3    68  ARG68       0.0334
     38  CG        51.4330  -12.1480    5.9860 C.3    68  ARG68       0.0492
     39  CD        51.0300  -10.7670    5.5010 C.3    68  ARG68       0.2205
     40  NE        49.8830  -10.8420    4.6020 N.pl3  68  ARG68      -0.0865
     41  CZ        49.4260   -9.8270    3.8790 C.cat  68  ARG68       0.5346
     42  NH1       50.0100   -8.6360    3.9420 N.pl3  68  ARG68       0.1354
     43  NH2       48.3770  -10.0080    3.0920 N.pl3  68  ARG68       0.1354
     44  N         49.6900  -22.0230    6.8060 N.3    77  ARG77      -0.1245
     45  CA        48.8220  -20.9330    6.3920 C.3    77  ARG77       0.1563
     46  C         47.3590  -21.2660    6.6140 C.2    77  ARG77       0.2260
     47  O         46.5750  -20.4050    7.0150 O.2    77  ARG77      -0.2867
     48  CB        49.0250  -20.6170    4.9160 C.3    77  ARG77       0.0307
     49  CG        50.4530  -20.3300    4.5530 C.3    77  ARG77       0.0489
     50  CD        50.5820  -20.0260    3.0940 C.3    77  ARG77       0.2205
     51  NE        50.6920  -18.5950    2.9150 N.pl3  77  ARG77      -0.0865
     52  CZ        49.7000  -17.7640    2.6250 C.cat  77  ARG77       0.5346
     53  NH1       48.4510  -18.1800    2.4260 N.pl3  77  ARG77       0.1354
     54  NH2       49.9840  -16.4820    2.5190 N.pl3  77  ARG77       0.1354
     55  N         43.5050  -19.4480    8.1400 N.3    81  HIS81      -0.1241
     56  CA        42.2040  -19.4390    7.4940 C.3    81  HIS81       0.1621
     57  C         41.1300  -19.9930    8.4270 C.2    81  HIS81       0.2264
     58  O         40.0370  -19.4370    8.5210 O.2    81  HIS81      -0.2867
     59  CB        42.2490  -20.2130    6.1850 C.3    81  HIS81       0.0745
     60  CG        43.0540  -19.5370    5.1180 C.ar   81  HIS81       0.0817
     61  ND1       44.2270  -20.0640    4.6210 N.ar   81  HIS81      -0.2268
     62  CD2       42.8570  -18.3780    4.4600 C.ar   81  HIS81       0.1154
     63  CE1       44.7130  -19.2550    3.6970 C.ar   81  HIS81       0.1986
     64  NE2       43.9030  -18.2190    3.5880 N.ar   81  HIS81      -0.2212
     65  N         47.7090  -20.2560   -6.1990 N.3   115  ARG115     -0.1245
     66  CA        48.2720  -20.7890   -4.9540 C.3   115  ARG115      0.1563
     67  C         48.5410  -22.2810   -5.0760 C.2   115  ARG115      0.2260
     68  O         48.1560  -22.9090   -6.0660 O.2   115  ARG115     -0.2867
     69  CB        47.3670  -20.4460   -3.7730 C.3   115  ARG115      0.0307
     70  CG        47.1790  -18.9440   -3.6280 C.3   115  ARG115      0.0489
     71  CD        46.4370  -18.5650   -2.3710 C.3   115  ARG115      0.2205
     72  NE        46.3050  -17.1120   -2.2430 N.pl3 115  ARG115     -0.0865
     73  CZ        45.7110  -16.5070   -1.2190 C.cat 115  ARG115      0.5346
     74  NH1       45.2310  -17.2260   -0.2100 N.pl3 115  ARG115      0.1354
     75  NH2       45.6110  -15.1800   -1.1880 N.pl3 115  ARG115      0.1354
     76  N         46.8900  -25.6580   -0.6740 N.3   119  GLU119     -0.1245
     77  CA        46.1200  -24.5330   -0.1610 C.3   119  GLU119      0.1567
     78  C         44.7980  -24.3750   -0.8960 C.2   119  GLU119      0.2260
     79  O         43.7860  -24.0900   -0.2850 O.2   119  GLU119     -0.2867
     80  CB        46.9130  -23.2230   -0.2550 C.3   119  GLU119      0.0388
     81  CG        46.1250  -22.0030    0.2370 C.3   119  GLU119      0.1160
     82  CD        46.9800  -20.7990    0.6040 C.2   119  GLU119      0.3649
     83  OE1       48.2310  -20.8680    0.5710 O.co2 119  GLU119     -0.2457
     84  OE2       46.3880  -19.7640    0.9430 O.co2 119  GLU119     -0.2457
@<TRIPOS>BOND
     1    65    66    1
     2    68    67    2
     3    67    66    1
     4    66    69    1
     5    69    70    1
     6    70    71    1
     7    71    72    1
     8    72    73    2
     9    73    75    1
    10    73    74    1
    11    78    79    2
    12    78    77    1
    13    76    77    1
    14    80    77    1
    15    80    81    1
    16    81    82    1
    17    83    82   ar
    18    82    84   ar
    19    16    14   ar
    20    14    15   ar
    21    14    13    1
    22    53    52    1
    23    54    52    1
    24    52    51    2
    25    51    50    1
    26     1     2    1
    27    43    41    1
    28    50    49    1
    29    13    10    1
    30     8     7    1
    31    64    63   ar
    32    64    62   ar
    33    63    61   ar
    34    41    42    1
    35    41    40    2
    36     4     3    2
    37    10     9    1
    38    10    11    1
    39     3     2    1
    40     3     9   am
    41     2     5    1
    42    62    60   ar
    43    49    48    1
    44    40    39    1
    45     5     6    1
    46    61    60   ar
    47     6     7    1
    48    48    45    1
    49    60    59    1
    50    17    11   am
    51    17    18    1
    52    11    12    2
    53    39    38    1
    54    30    29    1
    55    30    31    1
    56    38    37    1
    57    29    23   am
    58    28    26   am
    59    59    56    1
    60    18    19    1
    61    45    46    1
    62    45    44    1
    63    21    19   am
    64    21    22    1
    65    46    47    2
    66    33    31   am
    67    33    34    1
    68    25    26    1
    69    25    22    1
    70    31    32    2
    71    26    27    2
    72    19    20    2
    73    37    34    1
    74    23    22    1
    75    23    24    2
    76    34    35    1
    77    56    55    1
    78    56    57    1
    79    57    58    2
    80    35    36    2
