@<TRIPOS>MOLECULE
tmp/2vg3A00.pdb
 204 198 0 0 0
SMALL
GASTEIGER

@<TRIPOS>ATOM
      1  N         20.1930   33.0390  450.7870 N.3    62  VAL62      -0.1231
      2  CA        21.2360   32.1350  450.3650 C.3    62  VAL62       0.1692
      3  C         22.0060   31.6940  451.6110 C.2    62  VAL62       0.2592
      4  O         22.7820   32.4440  452.2180 O.2    62  VAL62      -0.2718
      5  CB        22.1630   32.7370  449.3220 C.3    62  VAL62       0.0266
      6  CG1       23.3070   31.7370  448.9740 C.3    62  VAL62       0.0020
      7  CG2       21.3740   33.1200  448.1010 C.3    62  VAL62       0.0020
      8  N         21.7460   30.4590  451.9920 N.am   63  MET63      -0.1965
      9  CA        22.3480   29.8510  453.1630 C.3    63  MET63       0.1736
     10  C         23.7440   29.4370  452.7880 C.2    63  MET63       0.2616
     11  O         23.9330   28.6670  451.8410 O.2    63  MET63      -0.2715
     12  CB        21.5390   28.6260  453.5790 C.3    63  MET63       0.0427
     13  CG        20.0880   28.9590  453.8630 C.3    63  MET63       0.0599
     14  SD        19.0270   27.5280  454.1150 S.3    63  MET63      -0.1393
     15  CE        18.9260   26.8210  452.4500 C.3    63  MET63       0.0692
     16  N         24.7460   29.9560  453.4800 N.am   64  ASP64      -0.1957
     17  CA        26.1290   29.7290  453.0670 C.3    64  ASP64       0.1840
     18  C         27.0600   29.7040  454.2760 C.2    64  ASP64       0.2623
     19  O         26.7780   30.3170  455.3150 O.2    64  ASP64      -0.2715
     20  CB        26.5370   30.8480  452.0740 C.3    64  ASP64       0.1450
     21  CG        27.7250   30.4810  451.1820 C.2    64  ASP64       0.3671
     22  OD1       28.1790   29.3190  451.2020 O.co2  64  ASP64      -0.2456
     23  OD2       28.2020   31.3970  450.4570 O.co2  64  ASP64      -0.2456
     24  N         28.1620   28.9750  454.1390 N.am   65  GLY65      -0.1940
     25  CA        29.1790   28.8890  455.1770 C.3    65  GLY65       0.2014
     26  C         29.2300   27.5660  455.9200 C.2    65  GLY65       0.2639
     27  O         30.0230   27.4390  456.8480 O.2    65  GLY65      -0.2714
     28  N         28.3680   26.6080  455.5490 N.am   66  ASN66      -0.1958
     29  CA        28.3190   25.2860  456.2060 C.3    66  ASN66       0.1819
     30  C         29.6660   24.5660  456.1810 C.2    66  ASN66       0.2622
     31  O         30.0780   23.9660  457.1790 O.2    66  ASN66      -0.2715
     32  CB        27.2780   24.3550  455.5510 C.3    66  ASN66       0.1195
     33  CG        25.8370   24.7810  455.7960 C.2    66  ASN66       0.2630
     34  OD1       25.5610   25.6990  456.5620 O.2    66  ASN66      -0.2716
     35  ND2       24.9020   24.0820  455.1480 N.am   66  ASN66      -0.0877
     36  N         30.3540   24.6260  455.0430 N.am   67  GLY67      -0.1940
     37  CA        31.6140   23.9010  454.8790 C.3    67  GLY67       0.2014
     38  C         32.7220   24.5190  455.6950 C.2    67  GLY67       0.2638
     39  O         33.4500   23.8300  456.4080 O.2    67  GLY67      -0.2714
     40  N         32.8380   25.8350  455.6060 N.am   68  ARG68      -0.1977
     41  CA        33.8180   26.5730  456.3980 C.3    68  ARG68       0.1597
     42  C         33.5970   26.3450  457.8850 C.2    68  ARG68       0.2287
     43  O         34.5570   26.1960  458.6410 O.2    68  ARG68      -0.2864
     44  CB        33.7410   28.0690  456.0600 C.3    68  ARG68       0.0334
     45  CG        34.5540   28.4570  454.8440 C.3    68  ARG68       0.0492
     46  CD        34.1440   29.8290  454.3570 C.3    68  ARG68       0.2205
     47  NE        32.9020   29.7720  453.5920 N.pl3  68  ARG68      -0.0865
     48  CZ        32.2770   30.8390  453.1170 C.cat  68  ARG68       0.5346
     49  NH1       32.7680   32.0470  453.3360 N.pl3  68  ARG68       0.1354
     50  NH2       31.1610   30.6920  452.4240 N.pl3  68  ARG68       0.1354
     51  N         32.6290   18.3130  455.7670 N.3    77  ARG77      -0.1245
     52  CA        31.7000   19.3480  455.3020 C.3    77  ARG77       0.1563
     53  C         30.2230   19.0010  455.5570 C.2    77  ARG77       0.2260
     54  O         29.4160   19.8590  455.9100 O.2    77  ARG77      -0.2867
     55  CB        31.8920   19.5920  453.8080 C.3    77  ARG77       0.0307
     56  CG        33.2760   20.1140  453.4280 C.3    77  ARG77       0.0489
     57  CD        33.4260   20.1910  451.9090 C.3    77  ARG77       0.2205
     58  NE        32.3090   20.9120  451.3140 N.pl3  77  ARG77      -0.0865
     59  CZ        32.1780   22.2400  451.3070 C.cat  77  ARG77       0.5346
     60  NH1       33.1020   23.0260  451.8490 N.pl3  77  ARG77       0.1354
     61  NH2       31.1090   22.7860  450.7510 N.pl3  77  ARG77       0.1354
     62  N         26.5160   20.7830  457.0220 N.3    81  HIS81      -0.1241
     63  CA        25.1990   20.7390  456.3880 C.3    81  HIS81       0.1621
     64  C         24.1270   20.2660  457.3830 C.2    81  HIS81       0.2264
     65  O         23.0340   20.8310  457.4710 O.2    81  HIS81      -0.2867
     66  CB        25.2190   19.8050  455.1730 C.3    81  HIS81       0.0745
     67  CG        26.0960   20.2740  454.0620 C.ar   81  HIS81       0.0817
     68  ND1       26.2180   21.6050  453.7170 N.ar   81  HIS81      -0.2268
     69  CD2       26.8630   19.5870  453.1840 C.ar   81  HIS81       0.1154
     70  CE1       27.0610   21.7140  452.7050 C.ar   81  HIS81       0.1986
     71  NE2       27.4470   20.5050  452.3480 N.ar   81  HIS81      -0.2212
     72  N         22.7160   22.8840  459.5140 N.3    84  GLY84      -0.1210
     73  CA        21.8940   23.8380  458.8230 C.3    84  GLY84       0.1956
     74  C         20.3980   23.5670  458.9310 C.2    84  GLY84       0.2611
     75  O         19.6050   24.4680  458.7340 O.2    84  GLY84      -0.2717
     76  N         20.0270   22.3110  459.1800 N.am   85  GLU85      -0.1979
     77  CA        18.6180   21.9210  459.3010 C.3    85  GLU85       0.1602
     78  C         17.9020   22.6960  460.4130 C.2    85  GLU85       0.2287
     79  O         16.8390   23.3040  460.1810 O.2    85  GLU85      -0.2864
     80  CB        18.4970   20.4240  459.5560 C.3    85  GLU85       0.0415
     81  CG        17.0330   19.9460  459.6810 C.3    85  GLU85       0.1163
     82  CD        16.9060   18.5290  460.1110 C.2    85  GLU85       0.3649
     83  OE1       17.9360   17.8180  460.2220 O.co2  85  GLU85      -0.2457
     84  OE2       15.7590   18.1190  460.3910 O.co2  85  GLU85      -0.2457
     85  N         17.3960   26.4290  459.4570 N.3    88  VAL88      -0.1245
     86  CA        16.2400   26.5660  458.5730 C.3    88  VAL88       0.1561
     87  C         14.9450   26.6560  459.3940 C.2    88  VAL88       0.2260
     88  O         14.1340   27.5340  459.1870 O.2    88  VAL88      -0.2867
     89  CB        16.1240   25.3840  457.5910 C.3    88  VAL88       0.0252
     90  CG1       14.7810   25.4160  456.8640 C.3    88  VAL88       0.0019
     91  CG2       17.2770   25.4020  456.5740 C.3    88  VAL88       0.0019
     92  N         17.5950   28.7760  449.4440 N.3   106  TYR106     -0.1227
     93  CA        18.3980   28.1580  448.3780 C.3   106  TYR106      0.1736
     94  C         19.0750   26.8970  448.8930 C.2   106  TYR106      0.2595
     95  O         20.1930   26.9470  449.4110 O.2   106  TYR106     -0.2718
     96  CB        19.4740   29.1340  447.9090 C.3   106  TYR106      0.0548
     97  CG        19.9940   28.9910  446.4830 C.ar  106  TYR106     -0.0200
     98  CD1       21.1000   29.7300  446.0820 C.ar  106  TYR106     -0.0009
     99  CD2       19.3570   28.2180  445.5290 C.ar  106  TYR106     -0.0009
    100  CE1       21.5740   29.6880  444.7860 C.ar  106  TYR106      0.0417
    101  CE2       19.8230   28.1790  444.2080 C.ar  106  TYR106      0.0417
    102  CZ        20.9230   28.9340  443.8490 C.ar  106  TYR106      0.1957
    103  OH        21.4070   28.9090  442.5570 O.3   106  TYR106     -0.2866
    104  N         18.3850   25.7690  448.7950 N.am  107  ALA107     -0.1966
    105  CA        18.8490   24.5190  449.3850 C.3   107  ALA107      0.1728
    106  C         19.8780   23.7780  448.5240 C.2   107  ALA107      0.2616
    107  O         20.7070   23.0380  449.0360 O.2   107  ALA107     -0.2715
    108  CB        17.6540   23.6100  449.6550 C.3   107  ALA107      0.0334
    109  N         19.7690   23.9120  447.2110 N.am  108  PHE108     -0.1960
    110  CA        20.7340   23.2740  446.2920 C.3   108  PHE108      0.1771
    111  C         20.5300   23.9230  444.9410 C.2   108  PHE108      0.2620
    112  O         19.3960   24.0290  444.4760 O.2   108  PHE108     -0.2715
    113  CB        20.4580   21.7800  446.1990 C.3   108  PHE108      0.0574
    114  CG        21.5070   20.9820  445.4330 C.ar  108  PHE108     -0.0200
    115  CD1       22.4580   20.2160  446.1200 C.ar  108  PHE108     -0.0042
    116  CD2       21.4960   20.9390  444.0430 C.ar  108  PHE108     -0.0042
    117  CE1       23.4000   19.4430  445.4350 C.ar  108  PHE108     -0.0003
    118  CE2       22.4610   20.1760  443.3480 C.ar  108  PHE108     -0.0003
    119  CZ        23.4010   19.4210  444.0460 C.ar  108  PHE108     -0.0000
    120  N         21.6120   24.3730  444.3220 N.am  109  SER109     -0.1950
    121  CA        21.5290   24.9890  443.0070 C.3   109  SER109      0.1924
    122  C         21.9530   24.0740  441.8430 C.2   109  SER109      0.2314
    123  O         22.6550   23.0580  442.0090 O.2   109  SER109     -0.2863
    124  CB        22.3430   26.2750  442.9700 C.3   109  SER109      0.2116
    125  OG        23.6600   26.0550  442.5390 O.3   109  SER109     -0.2180
    126  N         25.5250   23.3280  441.9200 N.3   112  ASN112     -0.1240
    127  CA        26.0930   22.5240  442.9930 C.3   112  ASN112      0.1653
    128  C         26.4300   21.0810  442.5710 C.2   112  ASN112      0.2266
    129  O         27.0570   20.3610  443.3200 O.2   112  ASN112     -0.2867
    130  CB        25.1770   22.4920  444.2250 C.3   112  ASN112      0.1155
    131  CG        25.1100   23.8260  444.9580 C.2   112  ASN112      0.2627
    132  OD1       24.0860   24.1510  445.5670 O.2   112  ASN112     -0.2716
    133  ND2       26.2100   24.5760  444.9420 N.am  112  ASN112     -0.0877
    134  N         30.1140   19.8160  442.7710 N.3   115  ARG115     -0.1245
    135  CA        30.7230   19.3090  443.9960 C.3   115  ARG115      0.1563
    136  C         30.9980   17.7990  443.9020 C.2   115  ARG115      0.2260
    137  O         30.5910   17.1340  442.9460 O.2   115  ARG115     -0.2867
    138  CB        29.8470   19.6410  445.2150 C.3   115  ARG115      0.0307
    139  CG        29.5990   21.1510  445.3680 C.3   115  ARG115      0.0489
    140  CD        28.9210   21.5600  446.6350 C.3   115  ARG115      0.2205
    141  NE        28.7780   23.0270  446.7210 N.pl3 115  ARG115     -0.0865
    142  CZ        28.4790   23.6920  447.8340 C.cat 115  ARG115      0.5346
    143  NH1       28.2530   23.0530  448.9700 N.pl3 115  ARG115      0.1354
    144  NH2       28.3980   25.0120  447.8150 N.pl3 115  ARG115      0.1354
    145  N         23.7040   15.7170  450.1200 N.3   123  LEU123     -0.1245
    146  CA        22.7560   16.8240  450.0420 C.3   123  LEU123      0.1561
    147  C         21.4010   16.3900  449.4900 C.2   123  LEU123      0.2260
    148  O         20.3450   16.8600  449.9430 O.2   123  LEU123     -0.2867
    149  CB        23.3420   17.9870  449.2180 C.3   123  LEU123      0.0270
    150  CG        24.3800   18.8090  449.9860 C.3   123  LEU123      0.0019
    151  CD1       25.1400   19.7760  449.0780 C.3   123  LEU123      0.0001
    152  CD2       23.6850   19.5540  451.1280 C.3   123  LEU123      0.0001
    153  N         19.8110   14.2940  452.2440 N.3   126  PHE126     -0.1227
    154  CA        19.5720   15.2100  453.3590 C.3   126  PHE126      0.1736
    155  C         18.3440   16.0570  453.1200 C.2   126  PHE126      0.2595
    156  O         17.5190   16.2020  453.9990 O.2   126  PHE126     -0.2718
    157  CB        20.7680   16.1430  453.5970 C.3   126  PHE126      0.0547
    158  CG        20.6840   16.9150  454.8750 C.ar  126  PHE126     -0.0202
    159  CD1       20.4550   16.2550  456.0790 C.ar  126  PHE126     -0.0042
    160  CD2       20.8450   18.2850  454.8890 C.ar  126  PHE126     -0.0042
    161  CE1       20.3720   16.9530  457.2500 C.ar  126  PHE126     -0.0003
    162  CE2       20.7690   18.9910  456.0920 C.ar  126  PHE126     -0.0003
    163  CZ        20.5340   18.3170  457.2540 C.ar  126  PHE126     -0.0000
    164  N         18.2230   16.6260  451.9280 N.am  127  ASN127     -0.1974
    165  CA        17.0460   17.4410  451.6090 C.3   127  ASN127      0.1688
    166  C         15.7610   16.6110  451.6160 C.2   127  ASN127      0.2292
    167  O         14.7270   17.0680  452.1080 O.2   127  ASN127     -0.2864
    168  CB        17.2230   18.1660  450.2760 C.3   127  ASN127      0.1181
    169  CG        18.0180   19.4550  450.4210 C.2   127  ASN127      0.2629
    170  OD1       17.5550   20.4070  451.0370 O.2   127  ASN127     -0.2716
    171  ND2       19.2190   19.4800  449.8740 N.am  127  ASN127     -0.0877
    172  N         15.0380   15.8860  455.4270 N.3   130  VAL130     -0.1245
    173  CA        14.5550   17.1080  456.0950 C.3   130  VAL130      0.1561
    174  C         13.0960   17.4190  455.7870 C.2   130  VAL130      0.2260
    175  O         12.2980   17.7010  456.6940 O.2   130  VAL130     -0.2867
    176  CB        15.4190   18.3390  455.7340 C.3   130  VAL130      0.0252
    177  CG1       14.7840   19.6210  456.2920 C.3   130  VAL130      0.0019
    178  CG2       16.8260   18.1500  456.2920 C.3   130  VAL130      0.0019
    179  N         10.9300   26.2010  448.8230 N.3   179  TYR179     -0.1241
    180  CA        12.0480   25.3530  449.1960 C.3   179  TYR179      0.1605
    181  C         12.7670   24.9590  447.9060 C.2   179  TYR179      0.2264
    182  O         12.3400   24.0780  447.1680 O.2   179  TYR179     -0.2867
    183  CB        11.5940   24.1490  450.0090 C.3   179  TYR179      0.0534
    184  CG        12.7450   23.5050  450.7430 C.ar  179  TYR179     -0.0201
    185  CD1       13.2580   24.0670  451.9110 C.ar  179  TYR179     -0.0009
    186  CD2       13.3400   22.3580  450.2480 C.ar  179  TYR179     -0.0009
    187  CE1       14.3450   23.4790  452.5710 C.ar  179  TYR179      0.0417
    188  CE2       14.4280   21.7600  450.8910 C.ar  179  TYR179      0.0417
    189  CZ        14.9160   22.3240  452.0590 C.ar  179  TYR179      0.1957
    190  OH        15.9850   21.7540  452.7210 O.3   179  TYR179     -0.2866
    191  N         26.3230   30.0020  458.2480 N.3   259  TRP259     -0.1241
    192  CA        24.9410   29.5680  458.3650 C.3   259  TRP259      0.1605
    193  C         24.6800   28.7680  459.6320 C.2   259  TRP259      0.2264
    194  O         23.6770   29.0110  460.3160 O.2   259  TRP259     -0.2867
    195  CB        24.4780   28.8160  457.1050 C.3   259  TRP259      0.0550
    196  CG        23.0430   28.3590  457.1680 C.ar  259  TRP259      0.0003
    197  CD1       22.5950   27.0610  457.2500 C.ar  259  TRP259      0.0946
    198  CD2       21.8710   29.1850  457.1860 C.ar  259  TRP259      0.0152
    199  NE1       21.2190   27.0370  457.2970 N.ar  259  TRP259     -0.2442
    200  CE2       20.7490   28.3250  457.2580 C.ar  259  TRP259      0.0810
    201  CE3       21.6580   30.5650  457.1290 C.ar  259  TRP259      0.0012
    202  CZ2       19.4240   28.8100  457.2910 C.ar  259  TRP259      0.0191
    203  CZ3       20.3430   31.0430  457.1600 C.ar  259  TRP259      0.0001
    204  CH2       19.2510   30.1700  457.2500 C.ar  259  TRP259      0.0015
@<TRIPOS>BOND
     1   122   123    2
     2   122   121    1
     3   126   127    1
     4   125   124    1
     5   103   102    1
     6   128   127    1
     7   128   129    2
     8   134   135    1
     9   137   136    2
    10   124   121    1
    11   127   130    1
    12   121   120    1
    13   118   116   ar
    14   118   119   ar
    15   102   101   ar
    16   102   100   ar
    17   136   135    1
    18   135   138    1
    19   116   114   ar
    20   119   117   ar
    21   101    99   ar
    22   130   131    1
    23   120   111   am
    24   112   111    2
    25   100    98   ar
    26   111   110    1
    27   133   131   am
    28   131   132    2
    29   138   139    1
    30   139   140    1
    31   114   115   ar
    32   114   113    1
    33   117   115   ar
    34    99    97   ar
    35    98    97   ar
    36   113   110    1
    37   110   109    1
    38    97    96    1
    39   140   141    1
    40   141   142    2
    41   182   181    2
    42   109   106   am
    43   144   142    1
    44   142   143    1
    45   181   180    1
    46    96    93    1
    47     7     5    1
    48    93    94    1
    49    93    92    1
    50   106   107    2
    51   106   105    1
    52   104    94   am
    53   104   105    1
    54   179   180    1
    55    94    95    2
    56     6     5    1
    57   151   150    1
    58   180   183    1
    59   149   150    1
    60   149   146    1
    61     5     2    1
    62   105   108    1
    63   147   148    2
    64   147   146    1
    65   171   169   am
    66   150   152    1
    67   183   184    1
    68   146   145    1
    69   186   184   ar
    70   186   188   ar
    71   168   169    1
    72   168   165    1
    73     2     1    1
    74     2     3    1
    75   169   170    2
    76    23    21   ar
    77   184   185   ar
    78    61    59    1
    79   188   189   ar
    80    21    22   ar
    81    21    20    1
    82    59    58    2
    83    59    60    1
    84    58    57    1
    85   165   166    1
    86   165   164    1
    87     3     8   am
    88     3     4    2
    89   166   167    2
    90    11    10    2
    91    57    56    1
    92   185   187   ar
    93   164   155   am
    94     8     9    1
    95   189   187   ar
    96   189   190    1
    97    20    17    1
    98   153   154    1
    99    71    70   ar
   100    71    69   ar
   101    50    48    1
   102    15    14    1
   103    70    68   ar
   104    10     9    1
   105    10    16   am
   106    17    16    1
   107    17    18    1
   108    48    49    1
   109    48    47    2
   110   155   154    1
   111   155   156    2
   112     9    12    1
   113    69    67   ar
   114   154   157    1
   115    56    55    1
   116    12    13    1
   117    47    46    1
   118   157   158    1
   119    68    67   ar
   120    55    52    1
   121    13    14    1
   122    67    66    1
   123    24    18   am
   124    24    25    1
   125    18    19    2
   126    46    45    1
   127    45    44    1
   128   158   160   ar
   129   158   159   ar
   130    37    36    1
   131    37    38    1
   132   160   162   ar
   133    36    30   am
   134    35    33   am
   135    66    63    1
   136    25    26    1
   137    52    53    1
   138    52    51    1
   139   172   173    1
   140    28    26   am
   141    28    29    1
   142    32    33    1
   143    32    29    1
   144    53    54    2
   145    40    38   am
   146    40    41    1
   147    38    39    2
   148   176   173    1
   149   176   178    1
   150   176   177    1
   151   174   173    1
   152   174   175    2
   153    33    34    2
   154    26    27    2
   155    44    41    1
   156   159   161   ar
   157   162   163   ar
   158    30    29    1
   159    30    31    2
   160    63    62    1
   161    63    64    1
   162    41    42    1
   163    91    89    1
   164    90    89    1
   165   195   196    1
   166   195   192    1
   167   201   203   ar
   168   201   198   ar
   169   203   204   ar
   170   196   198   ar
   171   196   197   ar
   172   198   200   ar
   173   197   199   ar
   174   204   202   ar
   175   161   163   ar
   176   200   202   ar
   177   200   199   ar
   178    64    65    2
   179    89    86    1
   180    42    43    2
   181   191   192    1
   182   192   193    1
   183    86    87    1
   184    86    85    1
   185    75    74    2
   186    73    74    1
   187    73    72    1
   188    74    76   am
   189    76    77    1
   190    88    87    2
   191    77    80    1
   192    77    78    1
   193    80    81    1
   194   193   194    2
   195    81    82    1
   196    82    83   ar
   197    82    84   ar
   198    79    78    2
