@<TRIPOS>MOLECULE
tmp/2vg7A00.pdb
 145 143 0 0 0
SMALL
GASTEIGER

@<TRIPOS>ATOM
      1  N         12.2780   55.7130   56.2210 N.3    89  PRO89      -0.2116
      2  CA        11.4190   55.7570   57.3930 C.3    89  PRO89       0.1372
      3  C          9.9590   55.8860   56.9940 C.2    89  PRO89       0.2244
      4  O          9.6410   56.5510   56.0060 O.2    89  PRO89      -0.2868
      5  CB        11.8800   57.0250   58.1220 C.3    89  PRO89       0.0268
      6  CG        12.6820   57.7920   57.1190 C.3    89  PRO89       0.0207
      7  CD        13.3130   56.7560   56.2580 C.3    89  PRO89       0.0892
      8  N          7.9990   58.2420   63.1830 N.3    94  LEU94      -0.1231
      9  CA         8.6440   59.4800   63.6180 C.3    94  LEU94       0.1693
     10  C          8.0950   59.9880   64.9530 C.2    94  LEU94       0.2591
     11  O          6.8830   59.9920   65.1760 O.2    94  LEU94      -0.2718
     12  CB         8.4860   60.5740   62.5570 C.3    94  LEU94       0.0284
     13  CG         9.0080   60.3030   61.1460 C.3    94  LEU94       0.0019
     14  CD1        8.6460   61.4660   60.2300 C.3    94  LEU94       0.0001
     15  CD2       10.5120   60.0710   61.1610 C.3    94  LEU94       0.0001
     16  N          8.9950   60.4270   65.8290 N.am   95  LYS95      -0.1980
     17  CA         8.5940   61.1160   67.0480 C.3    95  LYS95       0.1596
     18  C          8.1420   62.5300   66.7080 C.2    95  LYS95       0.2287
     19  O          8.4780   63.0630   65.6490 O.2    95  LYS95      -0.2864
     20  CB         9.7420   61.1630   68.0560 C.3    95  LYS95       0.0298
     21  CG         9.9490   59.8720   68.8320 C.3    95  LYS95       0.0038
     22  CD        10.2990   58.7170   67.9090 C.3    95  LYS95       0.0206
     23  CE        11.6190   58.9530   67.1990 C.3    95  LYS95       0.1093
     24  NZ        11.8770   57.9160   66.1660 N.3    95  LYS95      -0.1314
     25  N          7.9490   66.5170   66.8000 N.3    97  LYS97      -0.1245
     26  CA         8.8920   67.6150   66.9640 C.3    97  LYS97       0.1561
     27  C          8.1610   68.9520   66.9640 C.2    97  LYS97       0.2260
     28  O          7.1300   69.1080   66.3100 O.2    97  LYS97      -0.2867
     29  CB         9.9470   67.5910   65.8550 C.3    97  LYS97       0.0271
     30  CG        10.8500   66.3730   65.8750 C.3    97  LYS97       0.0035
     31  CD        11.5160   66.1920   67.2290 C.3    97  LYS97       0.0206
     32  CE        12.4620   64.9960   67.2220 C.3    97  LYS97       0.1093
     33  NZ        12.9040   64.6090   68.5920 N.3    97  LYS97      -0.1314
     34  N         10.3140   72.2520   62.6610 N.3   100  VAL100     -0.1245
     35  CA        10.9570   71.5530   61.5540 C.3   100  VAL100      0.1561
     36  C         11.4150   72.5340   60.4770 C.2   100  VAL100      0.2260
     37  O         10.7460   73.5300   60.2050 O.2   100  VAL100     -0.2867
     38  CB        10.0180   70.5040   60.9150 C.3   100  VAL100      0.0252
     39  CG1       10.7470   69.7270   59.8260 C.3   100  VAL100      0.0019
     40  CG2        9.4820   69.5560   61.9720 C.3   100  VAL100      0.0019
     41  N         17.4310   66.4670   65.7190 N.3   173  VAL173     -0.1231
     42  CA        17.1820   65.4260   64.7310 C.3   173  VAL173      0.1692
     43  C         17.4520   65.9440   63.3230 C.2   173  VAL173      0.2592
     44  O         16.9840   67.0180   62.9450 O.2   173  VAL173     -0.2718
     45  CB        15.7330   64.8920   64.8250 C.3   173  VAL173      0.0266
     46  CG1       15.2040   64.5260   63.4490 C.3   173  VAL173      0.0020
     47  CG2       15.6590   63.7050   65.7780 C.3   173  VAL173      0.0020
     48  N         18.2280   65.1820   62.5620 N.am  174  ILE174     -0.1966
     49  CA        18.5720   65.5540   61.1970 C.3   174  ILE174      0.1727
     50  C         18.4280   64.3420   60.2950 C.2   174  ILE174      0.2616
     51  O         18.9960   63.2880   60.5760 O.2   174  ILE174     -0.2715
     52  CB        20.0290   66.0480   61.0960 C.3   174  ILE174      0.0290
     53  CG1       20.2480   67.2790   61.9750 C.3   174  ILE174      0.0022
     54  CG2       20.3950   66.3460   59.6480 C.3   174  ILE174      0.0023
     55  CD1       21.7060   67.6780   62.0970 C.3   174  ILE174      0.0001
     56  N         17.6840   64.4960   59.2060 N.am  175  TYR175     -0.1974
     57  CA        17.5450   63.4180   58.2340 C.3   175  TYR175      0.1639
     58  C         17.9680   63.8590   56.8430 C.2   175  TYR175      0.2290
     59  O         17.4770   64.8610   56.3200 O.2   175  TYR175     -0.2864
     60  CB        16.1120   62.8780   58.2050 C.3   175  TYR175      0.0560
     61  CG        15.8600   61.8740   57.1010 C.ar  175  TYR175     -0.0198
     62  CD1       16.2120   60.5420   57.2540 C.ar  175  TYR175     -0.0009
     63  CD2       15.2760   62.2620   55.9020 C.ar  175  TYR175     -0.0009
     64  CE1       15.9860   59.6240   56.2490 C.ar  175  TYR175      0.0417
     65  CE2       15.0460   61.3510   54.8900 C.ar  175  TYR175      0.0417
     66  CZ        15.4010   60.0320   55.0710 C.ar  175  TYR175      0.1957
     67  OH        15.1700   59.1170   54.0690 O.3   175  TYR175     -0.2866
     68  N         16.3980   67.5070   56.3620 N.3   182  TYR182     -0.1241
     69  CA        15.2880   67.8500   57.2400 C.3   182  TYR182      0.1605
     70  C         15.8090   67.9370   58.6680 C.2   182  TYR182      0.2264
     71  O         16.3810   66.9810   59.1900 O.2   182  TYR182     -0.2867
     72  CB        14.1710   66.8050   57.1520 C.3   182  TYR182      0.0534
     73  CG        13.5660   66.6470   55.7740 C.ar  182  TYR182     -0.0201
     74  CD1       14.2000   65.8840   54.8040 C.ar  182  TYR182     -0.0009
     75  CD2       12.3410   67.2270   55.4560 C.ar  182  TYR182     -0.0009
     76  CE1       13.6500   65.7260   53.5470 C.ar  182  TYR182      0.0417
     77  CE2       11.7800   67.0720   54.1970 C.ar  182  TYR182      0.0417
     78  CZ        12.4430   66.3190   53.2480 C.ar  182  TYR182      0.1957
     79  OH        11.9060   66.1520   51.9920 O.3   182  TYR182     -0.2866
     80  N         14.6960   68.7430   62.5850 N.3   184  GLY184     -0.1225
     81  CA        13.5840   68.8910   63.5120 C.3   184  GLY184      0.1811
     82  C         14.0730   69.1050   64.9280 C.2   184  GLY184      0.2280
     83  O         15.2210   68.8030   65.2510 O.2   184  GLY184     -0.2866
     84  N          5.1350   69.4600   54.0210 N.3   221  PHE221     -0.1241
     85  CA         6.2320   68.9430   53.2010 C.3   221  PHE221      0.1605
     86  C          5.7960   67.7540   52.3540 C.2   221  PHE221      0.2264
     87  O          5.0560   66.8860   52.8150 O.2   221  PHE221     -0.2867
     88  CB         7.4120   68.5170   54.0800 C.3   221  PHE221      0.0534
     89  CG         7.8510   69.5660   55.0550 C.ar  221  PHE221     -0.0203
     90  CD1        7.6830   69.3780   56.4170 C.ar  221  PHE221     -0.0042
     91  CD2        8.4140   70.7510   54.6110 C.ar  221  PHE221     -0.0042
     92  CE1        8.0760   70.3490   57.3180 C.ar  221  PHE221     -0.0003
     93  CE2        8.8040   71.7280   55.5050 C.ar  221  PHE221     -0.0003
     94  CZ         8.6370   71.5260   56.8600 C.ar  221  PHE221     -0.0000
     95  N          7.1360   64.5170   50.7010 N.3   223  TRP223     -0.1241
     96  CA         8.2510   63.5760   50.6790 C.3   223  TRP223      0.1605
     97  C          7.8040   62.1480   50.3720 C.2   223  TRP223      0.2264
     98  O          7.1730   61.4940   51.2020 O.2   223  TRP223     -0.2867
     99  CB         9.0040   63.6160   52.0110 C.3   223  TRP223      0.0550
    100  CG        10.0860   62.5860   52.1200 C.ar  223  TRP223      0.0003
    101  CD1       11.3020   62.6140   51.5120 C.ar  223  TRP223      0.0946
    102  CD2       10.0470   61.3750   52.8850 C.ar  223  TRP223      0.0152
    103  NE1       12.0220   61.4930   51.8390 N.ar  223  TRP223     -0.2442
    104  CE2       11.2780   60.7200   52.6900 C.ar  223  TRP223      0.0810
    105  CE3        9.0920   60.7820   53.7160 C.ar  223  TRP223      0.0012
    106  CZ2       11.5800   59.5020   53.2950 C.ar  223  TRP223      0.0191
    107  CZ3        9.3920   59.5740   54.3140 C.ar  223  TRP223      0.0001
    108  CH2       10.6260   58.9450   54.1000 C.ar  223  TRP223      0.0015
    109  N          3.8450   65.9940   55.2410 N.3   228  LEU228     -0.1231
    110  CA         4.3980   65.9690   56.5960 C.3   228  LEU228      0.1693
    111  C          4.2480   67.2770   57.3700 C.2   228  LEU228      0.2592
    112  O          4.8620   68.2880   57.0220 O.2   228  LEU228     -0.2718
    113  CB         5.8740   65.5600   56.5640 C.3   228  LEU228      0.0284
    114  CG         6.2230   64.2800   55.8000 C.3   228  LEU228      0.0019
    115  CD1        7.7180   63.9980   55.8710 C.3   228  LEU228      0.0001
    116  CD2        5.4280   63.0980   56.3280 C.3   228  LEU228      0.0001
    117  N          3.4540   67.2420   58.4360 N.am  229  HIS229     -0.1962
    118  CA         3.4110   68.3300   59.4120 C.3   229  HIS229      0.1772
    119  C          4.2270   67.9290   60.6380 C.2   229  HIS229      0.2462
    120  O          4.4220   66.7410   60.8920 O.2   229  HIS229     -0.2730
    121  CB         1.9700   68.6240   59.8330 C.3   229  HIS229      0.0785
    122  CG         1.0430   68.8890   58.6880 C.ar  229  HIS229      0.0821
    123  ND1        0.4190   70.1050   58.5020 N.ar  229  HIS229     -0.2267
    124  CD2        0.6150   68.0900   57.6830 C.ar  229  HIS229      0.1154
    125  CE1       -0.3420   70.0460   57.4240 C.ar  229  HIS229      0.1986
    126  NE2       -0.2430   68.8340   56.9100 N.ar  229  HIS229     -0.2212
    127  N          4.7130   68.9170   61.4040 N.am  230  PRO230     -0.2727
    128  CA         5.5060   68.6170   62.5950 C.3   230  PRO230      0.1402
    129  C          4.7190   67.8420   63.6520 C.2   230  PRO230      0.2269
    130  O          5.3160   67.1520   64.4810 O.2   230  PRO230     -0.2865
    131  CB         5.8890   70.0030   63.1250 C.3   230  PRO230      0.0296
    132  CG         4.9010   70.9370   62.5260 C.3   230  PRO230      0.0237
    133  CD         4.5730   70.3660   61.1850 C.3   230  PRO230      0.0939
    134  N          1.9240   60.7140   65.4010 N.3   312  TYR312     -0.1241
    135  CA         3.2910   60.2300   65.5490 C.3   312  TYR312      0.1605
    136  C          3.4530   59.3640   66.7960 C.2   312  TYR312      0.2264
    137  O          2.5400   59.2580   67.6120 O.2   312  TYR312     -0.2867
    138  CB         4.2840   61.3940   65.5640 C.3   312  TYR312      0.0534
    139  CG         4.3880   62.1300   64.2470 C.ar  312  TYR312     -0.0201
    140  CD1        4.7030   61.4540   63.0740 C.ar  312  TYR312     -0.0009
    141  CD2        4.2010   63.5050   64.1810 C.ar  312  TYR312     -0.0009
    142  CE1        4.8140   62.1260   61.8680 C.ar  312  TYR312      0.0417
    143  CE2        4.3100   64.1870   62.9820 C.ar  312  TYR312      0.0417
    144  CZ         4.6220   63.4940   61.8300 C.ar  312  TYR312      0.1957
    145  OH         4.7310   64.1700   60.6360 O.3   312  TYR312     -0.2866
@<TRIPOS>BOND
     1    97    96    1
     2    97    98    2
     3    96    95    1
     4    96    99    1
     5   101   103   ar
     6   101   100   ar
     7   103   104   ar
     8    79    78    1
     9    99   100    1
    10   100   102   ar
    11    86    87    2
    12    86    85    1
    13   104   102   ar
    14   104   106   ar
    15   102   105   ar
    16    85    84    1
    17    85    88    1
    18    78    76   ar
    19    78    77   ar
    20   106   108   ar
    21    76    74   ar
    22   105   107   ar
    23    67    66    1
    24    88    89    1
    25   108   107   ar
    26    77    75   ar
    27    91    89   ar
    28    91    93   ar
    29    74    73   ar
    30    65    66   ar
    31    65    63   ar
    32    89    90   ar
    33    66    64   ar
    34   109   110    1
    35    75    73   ar
    36    93    94   ar
    37    73    72    1
    38   114   115    1
    39   114   116    1
    40   114   113    1
    41    63    61   ar
    42     4     3    2
    43     1     7    1
    44     1     2    1
    45    64    62   ar
    46     7     6    1
    47    59    58    2
    48    68    69    1
    49    90    92   ar
    50   113   110    1
    51   110   111    1
    52    58    57    1
    53    94    92   ar
    54   126   125   ar
    55   126   124   ar
    56     3     2    1
    57   112   111    2
    58    61    62   ar
    59    61    60    1
    60     6     5    1
    61    72    69    1
    62    69    70    1
    63   111   117   am
    64     2     5    1
    65   125   123   ar
    66   124   122   ar
    67    60    57    1
    68    57    56    1
    69   117   118    1
    70   123   122   ar
    71    70    71    2
    72   122   121    1
    73    56    50   am
    74   118   121    1
    75   118   119    1
    76    54    52    1
    77    39    38    1
    78    37    36    2
    79    14    13    1
    80    50    51    2
    81    50    49    1
    82    36    35    1
    83   145   144    1
    84   119   120    2
    85   119   127   am
    86    38    35    1
    87    38    40    1
    88    52    49    1
    89    52    53    1
    90    13    15    1
    91    13    12    1
    92   133   127    1
    93   133   132    1
    94    49    48    1
    95   127   128    1
    96    35    34    1
    97   144   142   ar
    98   144   143   ar
    99   142   140   ar
   100    53    55    1
   101   132   131    1
   102    12     9    1
   103    48    43   am
   104    80    81    1
   105   128   131    1
   106   128   129    1
   107    44    43    2
   108   143   141   ar
   109   140   139   ar
   110     8     9    1
   111    43    42    1
   112    46    45    1
   113    81    82    1
   114     9    10    1
   115   129   130    2
   116   141   139   ar
   117   139   138    1
   118    42    45    1
   119    42    41    1
   120    45    47    1
   121    82    83    2
   122    10    11    2
   123    10    16   am
   124   134   135    1
   125   135   138    1
   126   135   136    1
   127    19    18    2
   128    16    17    1
   129    29    30    1
   130    29    26    1
   131    30    31    1
   132    24    23    1
   133    28    27    2
   134    18    17    1
   135   136   137    2
   136    25    26    1
   137    26    27    1
   138    17    20    1
   139    23    22    1
   140    32    31    1
   141    32    33    1
   142    22    21    1
   143    20    21    1
