@<TRIPOS>MOLECULE
tmp/2vg8A01.pdb
 130 131 0 0 0
SMALL
GASTEIGER

@<TRIPOS>ATOM
      1  N          7.7370   33.0870   25.9270 N.3    13  GLY13      -0.1210
      2  CA         7.4250   31.8310   26.6150 C.3    13  GLY13       0.1956
      3  C          7.6300   31.9000   28.1220 C.2    13  GLY13       0.2611
      4  O          7.3250   30.9430   28.8430 O.2    13  GLY13      -0.2717
      5  N          8.1900   33.0150   28.6020 N.am   14  HIS14      -0.1975
      6  CA         8.1810   33.2530   30.0610 C.3    14  HIS14       0.1656
      7  C          7.0280   34.1980   30.4070 C.2    14  HIS14       0.2291
      8  O          6.3300   33.9780   31.3790 O.2    14  HIS14      -0.2864
      9  CB         9.4960   33.8150   30.5870 C.3    14  HIS14       0.0771
     10  CG        10.7000   33.0190   30.1970 C.ar   14  HIS14       0.0820
     11  ND1       11.9680   33.5520   30.1710 N.ar   14  HIS14      -0.2267
     12  CD2       10.8210   31.7270   29.8080 C.ar   14  HIS14       0.1154
     13  CE1       12.8230   32.6210   29.7850 C.ar   14  HIS14       0.1986
     14  NE2       12.1460   31.5130   29.5200 N.ar   14  HIS14      -0.2212
     15  N         13.0010   30.8550   35.3440 N.3   113  LEU113     -0.1231
     16  CA        14.0840   29.8910   35.4770 C.3   113  LEU113      0.1693
     17  C         15.4920   30.4380   35.3170 C.2   113  LEU113      0.2592
     18  O         16.4300   29.7980   35.7790 O.2   113  LEU113     -0.2718
     19  CB        13.8720   28.6900   34.5180 C.3   113  LEU113      0.0284
     20  CG        14.1700   28.8490   33.0080 C.3   113  LEU113      0.0019
     21  CD1       13.8970   27.4740   32.3780 C.3   113  LEU113      0.0001
     22  CD2       13.3240   29.9200   32.3110 C.3   113  LEU113      0.0001
     23  N         15.6200   31.6200   34.6870 N.am  114  PHE114     -0.1976
     24  CA        16.9470   32.2480   34.5200 C.3   114  PHE114      0.1639
     25  C         17.0930   33.5450   35.3020 C.2   114  PHE114      0.2290
     26  O         18.0800   34.2680   35.0980 O.2   114  PHE114     -0.2864
     27  CB        17.2250   32.5020   33.0360 C.3   114  PHE114      0.0560
     28  CG        17.4490   31.2190   32.2470 C.ar  114  PHE114     -0.0200
     29  CD1       18.5810   30.4250   32.5080 C.ar  114  PHE114     -0.0042
     30  CD2       16.5660   30.8220   31.2490 C.ar  114  PHE114     -0.0042
     31  CE1       18.8030   29.2280   31.7960 C.ar  114  PHE114     -0.0003
     32  CE2       16.7760   29.6380   30.5520 C.ar  114  PHE114     -0.0003
     33  CZ        17.9180   28.8390   30.8260 C.ar  114  PHE114     -0.0000
     34  N          8.6330   27.5380   33.9390 N.3   134  PRO134     -0.2102
     35  CA         7.6980   27.4450   32.8340 C.3   134  PRO134      0.1504
     36  C          7.8680   26.2240   31.9170 C.2   134  PRO134      0.2576
     37  O          7.2680   26.2020   30.8390 O.2   134  PRO134     -0.2718
     38  CB         7.9880   28.7360   32.0340 C.3   134  PRO134      0.0282
     39  CG         9.4670   28.9600   32.2240 C.3   134  PRO134      0.0208
     40  CD         9.7440   28.4970   33.6680 C.3   134  PRO134      0.0893
     41  N          8.6740   25.2460   32.3240 N.am  135  THR135     -0.1953
     42  CA         8.7740   24.0520   31.5190 C.3   135  THR135      0.1897
     43  C          8.6640   22.8020   32.4450 C.2   135  THR135      0.2313
     44  O          8.1010   22.8990   33.5500 O.2   135  THR135     -0.2863
     45  CB        10.0230   24.0960   30.5870 C.3   135  THR135      0.1794
     46  OG1       10.0270   22.9660   29.6850 O.3   135  THR135     -0.2208
     47  CG2       11.3320   24.1670   31.3810 C.3   135  THR135      0.0378
     48  N         14.4470   35.0110   18.6280 N.3   305  TYR305     -0.1241
     49  CA        13.9770   35.0000   20.0370 C.3   305  TYR305      0.1605
     50  C         13.5880   36.3830   20.5920 C.2   305  TYR305      0.2264
     51  O         12.6160   36.5240   21.3620 O.2   305  TYR305     -0.2867
     52  CB        15.0410   34.3320   20.9040 C.3   305  TYR305      0.0534
     53  CG        14.5830   34.0850   22.3370 C.ar  305  TYR305     -0.0201
     54  CD1       14.0070   32.8760   22.6930 C.ar  305  TYR305     -0.0009
     55  CD2       14.6960   35.0890   23.3140 C.ar  305  TYR305     -0.0009
     56  CE1       13.5800   32.6340   23.9980 C.ar  305  TYR305      0.0417
     57  CE2       14.2740   34.8470   24.6540 C.ar  305  TYR305      0.0417
     58  CZ        13.7220   33.6140   24.9680 C.ar  305  TYR305      0.1957
     59  OH        13.3000   33.3310   26.2550 O.3   305  TYR305     -0.2866
     60  N          7.5800   22.9330   17.8490 N.3   354  HIS354     -0.1241
     61  CA         8.9840   22.8980   18.2980 C.3   354  HIS354      0.1621
     62  C          9.0770   22.2970   19.6980 C.2   354  HIS354      0.2264
     63  O         10.1540   22.0800   20.1670 O.2   354  HIS354     -0.2867
     64  CB         9.6440   24.2960   18.2120 C.3   354  HIS354      0.0745
     65  CG         9.2630   25.2460   19.3150 C.ar  354  HIS354      0.0817
     66  ND1        7.9550   25.4440   19.7180 N.ar  354  HIS354     -0.2268
     67  CD2       10.0120   26.1190   20.0270 C.ar  354  HIS354      0.1154
     68  CE1        7.9240   26.3910   20.6410 C.ar  354  HIS354      0.1986
     69  NE2        9.1620   26.8020   20.8640 N.ar  354  HIS354     -0.2212
     70  N          8.1360   23.6890   22.5260 N.3   356  GLY356     -0.1210
     71  CA         8.1140   24.6760   23.6020 C.3   356  GLY356      0.1956
     72  C          6.9670   24.3030   24.5370 C.2   356  GLY356      0.2612
     73  O          5.9830   23.7070   24.1040 O.2   356  GLY356     -0.2717
     74  N          7.1330   24.5550   25.8460 N.am  357  TRP357     -0.1962
     75  CA         6.2220   23.9410   26.7920 C.3   357  TRP357      0.1771
     76  C          4.8700   24.6290   26.7910 C.2   357  TRP357      0.2619
     77  O          3.8850   23.9590   26.9970 O.2   357  TRP357     -0.2715
     78  CB         6.8170   23.8900   28.2130 C.3   357  TRP357      0.0590
     79  CG         6.0820   22.9220   29.1200 C.ar  357  TRP357      0.0006
     80  CD1        5.4850   23.2120   30.3480 C.ar  357  TRP357      0.0946
     81  CD2        5.8790   21.5240   28.8940 C.ar  357  TRP357      0.0152
     82  NE1        4.9280   22.0620   30.8620 N.ar  357  TRP357     -0.2442
     83  CE2        5.1650   21.0160   30.0020 C.ar  357  TRP357      0.0810
     84  CE3        6.2710   20.6380   27.8730 C.ar  357  TRP357      0.0012
     85  CZ2        4.8210   19.6540   30.1230 C.ar  357  TRP357      0.0191
     86  CZ3        5.9400   19.2830   27.9910 C.ar  357  TRP357      0.0001
     87  CH2        5.1850   18.8060   29.0870 C.ar  357  TRP357      0.0015
     88  N          4.8170   25.9470   26.5890 N.am  358  ASN358     -0.1972
     89  CA         3.5090   26.6110   26.4800 C.3   358  ASN358      0.1688
     90  C          2.7380   26.0540   25.3040 C.2   358  ASN358      0.2292
     91  O          1.5550   25.7730   25.4370 O.2   358  ASN358     -0.2864
     92  CB         3.6750   28.1320   26.3470 C.3   358  ASN358      0.1181
     93  CG         4.3770   28.7100   27.5400 C.2   358  ASN358      0.2629
     94  OD1        5.5590   29.1260   27.4670 O.2   358  ASN358     -0.2716
     95  ND2        3.6850   28.7120   28.6540 N.am  358  ASN358     -0.0877
     96  N         15.6950   24.1240   19.8370 N.3   376  TYR376     -0.1227
     97  CA        16.7230   24.7480   20.7070 C.3   376  TYR376      0.1736
     98  C         16.2630   24.6910   22.1530 C.2   376  TYR376      0.2595
     99  O         15.2820   24.0210   22.4330 O.2   376  TYR376     -0.2718
    100  CB        17.0400   26.2100   20.2530 C.3   376  TYR376      0.0548
    101  CG        15.8920   27.1830   20.3610 C.ar  376  TYR376     -0.0200
    102  CD1       15.7220   27.9390   21.5370 C.ar  376  TYR376     -0.0009
    103  CD2       14.9720   27.3640   19.3060 C.ar  376  TYR376     -0.0009
    104  CE1       14.6920   28.8280   21.6670 C.ar  376  TYR376      0.0417
    105  CE2       13.9190   28.2990   19.4240 C.ar  376  TYR376      0.0417
    106  CZ        13.8150   29.0320   20.6280 C.ar  376  TYR376      0.1957
    107  OH        12.8290   29.9470   20.8560 O.3   376  TYR376     -0.2866
    108  N         16.9730   25.3990   23.0450 N.am  377  ALA377     -0.1966
    109  CA        16.6790   25.3430   24.4730 C.3   377  ALA377      0.1728
    110  C         16.5140   23.8860   24.9190 C.2   377  ALA377      0.2616
    111  O         17.3310   23.0100   24.5200 O.2   377  ALA377     -0.2715
    112  CB        15.4840   26.2010   24.8240 C.3   377  ALA377      0.0334
    113  N         15.5030   23.5960   25.7510 N.am  378  GLU378     -0.1963
    114  CA        15.2760   22.2160   26.2310 C.3   378  GLU378      0.1733
    115  C         14.2930   21.3950   25.3480 C.2   378  GLU378      0.2616
    116  O         13.7550   20.3630   25.7730 O.2   378  GLU378     -0.2715
    117  CB        14.8080   22.2320   27.7240 C.3   378  GLU378      0.0429
    118  CG        13.2760   22.3920   27.9560 C.3   378  GLU378      0.1163
    119  CD        12.5950   23.7000   27.4250 C.2   378  GLU378      0.3649
    120  OE1       13.2070   24.5810   26.7790 O.co2 378  GLU378     -0.2457
    121  OE2       11.3800   23.8000   27.6960 O.co2 378  GLU378     -0.2457
    122  N         14.0490   21.8670   24.1210 N.am  379  GLN379     -0.1977
    123  CA        12.9840   21.2640   23.3170 C.3   379  GLN379      0.1601
    124  C         13.2460   19.7710   23.0160 C.2   379  GLN379      0.2287
    125  O         12.2860   18.9540   22.9500 O.2   379  GLN379     -0.2864
    126  CB        12.7130   22.1150   22.0510 C.3   379  GLN379      0.0394
    127  CG        12.0900   23.4700   22.3960 C.3   379  GLN379      0.0908
    128  CD        12.5570   24.5650   21.4540 C.2   379  GLN379      0.2608
    129  OE1       12.8250   24.2810   20.3030 O.2   379  GLN379     -0.2717
    130  NE2       12.6110   25.8360   21.9320 N.am  379  GLN379     -0.0878
@<TRIPOS>BOND
     1    60    61    1
     2    64    61    1
     3    64    65    1
     4    61    62    1
     5    48    49    1
     6   103   105   ar
     7   103   101   ar
     8    65    66   ar
     9    65    67   ar
    10   105   106   ar
    11    62    63    2
    12    66    68   ar
    13    96    97    1
    14    67    69   ar
    15    49    50    1
    16    49    52    1
    17   100   101    1
    18   100    97    1
    19   129   128    2
    20   101   102   ar
    21    50    51    2
    22   106   107    1
    23   106   104   ar
    24    68    69   ar
    25    97    98    1
    26    52    53    1
    27   128   130   am
    28   128   127    1
    29   102   104   ar
    30   126   127    1
    31   126   123    1
    32    98    99    2
    33    98   108   am
    34    53    54   ar
    35    53    55   ar
    36    70    71    1
    37    54    56   ar
    38   125   124    2
    39   124   123    1
    40   108   109    1
    41    55    57   ar
    42   123   122    1
    43    71    72    1
    44    56    58   ar
    45    73    72    2
    46   122   115   am
    47   109   112    1
    48   109   110    1
    49   111   110    2
    50    72    74   am
    51    57    58   ar
    52   110   113   am
    53    58    59    1
    54    90    91    2
    55    90    89    1
    56   115   116    2
    57   115   114    1
    58   113   114    1
    59    74    75    1
    60     1     2    1
    61   114   117    1
    62    92    89    1
    63    92    93    1
    64    89    88    1
    65    88    76   am
    66     2     3    1
    67   120   119   ar
    68    76    75    1
    69    76    77    2
    70    75    78    1
    71   119   121   ar
    72   119   118    1
    73    94    93    2
    74    93    95   am
    75   117   118    1
    76    84    86   ar
    77    84    81   ar
    78    86    87   ar
    79     3     5   am
    80     3     4    2
    81    78    79    1
    82     5     6    1
    83    81    79   ar
    84    81    83   ar
    85    87    85   ar
    86    79    80   ar
    87    14    13   ar
    88    14    12   ar
    89    46    45    1
    90    13    11   ar
    91    12    10   ar
    92    83    85   ar
    93    83    82   ar
    94     6     7    1
    95     6     9    1
    96    11    10   ar
    97    10     9    1
    98    80    82   ar
    99     7     8    2
   100    32    33   ar
   101    32    30   ar
   102    45    47    1
   103    45    42    1
   104    33    31   ar
   105    37    36    2
   106    30    28   ar
   107    42    41    1
   108    42    43    1
   109    31    29   ar
   110    36    41   am
   111    36    35    1
   112    38    39    1
   113    38    35    1
   114    39    40    1
   115    28    29   ar
   116    28    27    1
   117    22    20    1
   118    21    20    1
   119    43    44    2
   120    35    34    1
   121    20    19    1
   122    27    24    1
   123    40    34    1
   124    19    16    1
   125    24    23    1
   126    24    25    1
   127    23    17   am
   128    26    25    2
   129    17    16    1
   130    17    18    2
   131    15    16    1
