@<TRIPOS>MOLECULE
tmp/2vg8A00.pdb
 211 208 0 0 0
SMALL
GASTEIGER

@<TRIPOS>ATOM
      1  N          8.8330   35.6210   25.2280 N.3    12  MET12      -0.1230
      2  CA         7.3670   35.4150   25.2300 C.3    12  MET12       0.1702
      3  C          6.9290   34.1610   25.9870 C.2    12  MET12       0.2593
      4  O          5.8690   34.1770   26.6340 O.2    12  MET12      -0.2718
      5  CB         6.7900   35.3830   23.8050 C.3    12  MET12       0.0401
      6  CG         6.9700   36.6880   23.0470 C.3    12  MET12       0.0596
      7  SD         6.3060   38.0970   23.9470 S.3    12  MET12      -0.1393
      8  CE         4.5700   37.7360   24.0800 C.3    12  MET12       0.0692
      9  N          7.7370   33.0870   25.9270 N.am   13  GLY13      -0.1942
     10  CA         7.4250   31.8310   26.6150 C.3    13  GLY13       0.2014
     11  C          7.6300   31.9000   28.1220 C.2    13  GLY13       0.2638
     12  O          7.3250   30.9430   28.8430 O.2    13  GLY13      -0.2714
     13  N          8.1900   33.0150   28.6020 N.am   14  HIS14      -0.1973
     14  CA         8.1810   33.2530   30.0610 C.3    14  HIS14       0.1656
     15  C          7.0280   34.1980   30.4070 C.2    14  HIS14       0.2291
     16  O          6.3300   33.9780   31.3790 O.2    14  HIS14      -0.2864
     17  CB         9.4960   33.8150   30.5870 C.3    14  HIS14       0.0771
     18  CG        10.7000   33.0190   30.1970 C.ar   14  HIS14       0.0820
     19  ND1       11.9680   33.5520   30.1710 N.ar   14  HIS14      -0.2267
     20  CD2       10.8210   31.7270   29.8080 C.ar   14  HIS14       0.1154
     21  CE1       12.8230   32.6210   29.7850 C.ar   14  HIS14       0.1986
     22  NE2       12.1460   31.5130   29.5200 N.ar   14  HIS14      -0.2212
     23  N          4.1030   34.9880   28.8690 N.3    16  ILE16      -0.1245
     24  CA         2.7830   34.4300   28.6920 C.3    16  ILE16       0.1561
     25  C          2.2920   33.5780   29.9020 C.2    16  ILE16       0.2260
     26  O          1.2270   33.8500   30.4330 O.2    16  ILE16      -0.2867
     27  CB         2.6090   33.7020   27.3330 C.3    16  ILE16       0.0252
     28  CG1        2.5680   34.7670   26.2000 C.3    16  ILE16       0.0019
     29  CG2        1.3480   32.7130   27.3580 C.3    16  ILE16       0.0019
     30  CD1        2.7060   34.1370   24.7770 C.3    16  ILE16       0.0001
     31  N         -1.7970   22.5700   12.3850 N.3   262  TYR262     -0.1241
     32  CA        -1.1430   23.8080   12.7360 C.3   262  TYR262      0.1605
     33  C          0.3640   23.5370   12.7740 C.2   262  TYR262      0.2264
     34  O          0.8340   22.4930   13.2900 O.2   262  TYR262     -0.2867
     35  CB        -1.6350   24.2980   14.0900 C.3   262  TYR262      0.0534
     36  CG        -1.0190   25.5610   14.6170 C.ar  262  TYR262     -0.0201
     37  CD1       -1.0710   26.7470   13.8750 C.ar  262  TYR262     -0.0009
     38  CD2       -0.4660   25.6090   15.9030 C.ar  262  TYR262     -0.0009
     39  CE1       -0.5250   27.9290   14.3650 C.ar  262  TYR262      0.0417
     40  CE2        0.0600   26.7830   16.4110 C.ar  262  TYR262      0.0417
     41  CZ         0.0360   27.9410   15.6470 C.ar  262  TYR262      0.1957
     42  OH         0.5680   29.0910   16.1220 O.3   262  TYR262     -0.2866
     43  N          3.9540   25.5690   13.8720 N.3   264  SER264     -0.1217
     44  CA         4.5650   26.7600   14.4790 C.3   264  SER264      0.1889
     45  C          5.7730   26.4040   15.3310 C.2   264  SER264      0.2288
     46  O          5.7930   25.3750   16.0160 O.2   264  SER264     -0.2866
     47  CB         3.5430   27.4970   15.3490 C.3   264  SER264      0.2089
     48  OG         4.1220   28.5890   16.0330 O.3   264  SER264     -0.2183
     49  N          7.2060   28.3480   17.7930 N.3   266  GLY266     -0.1210
     50  CA         7.3180   29.1630   18.9820 C.3   266  GLY266      0.1956
     51  C          7.4830   30.6500   18.6770 C.2   266  GLY266      0.2612
     52  O          7.2870   31.1210   17.5330 O.2   266  GLY266     -0.2717
     53  N          7.8650   31.4010   19.7090 N.am  267  SER267     -0.1952
     54  CA         8.0830   32.8320   19.5470 C.3   267  SER267      0.1924
     55  C          9.4620   33.1430   19.0230 C.2   267  SER267      0.2314
     56  O          9.7650   34.3230   18.7220 O.2   267  SER267     -0.2863
     57  CB         7.8880   33.5740   20.8750 C.3   267  SER267      0.2116
     58  OG         8.8520   33.1730   21.8220 O.3   267  SER267     -0.2180
     59  N          2.6450   29.1460   10.6510 N.3   293  VAL293     -0.1245
     60  CA         3.2260   30.4260   11.0400 C.3   293  VAL293      0.1561
     61  C          4.7010   30.3920   10.6700 C.2   293  VAL293      0.2260
     62  O          5.4770   29.6350   11.2480 O.2   293  VAL293     -0.2867
     63  CB         3.1340   30.6940   12.5670 C.3   293  VAL293      0.0252
     64  CG1        3.5170   32.1470   12.8460 C.3   293  VAL293      0.0019
     65  CG2        1.7440   30.4170   13.0610 C.3   293  VAL293      0.0019
     66  N          8.5810   31.9050    9.5770 N.3   295  ARG295     -0.1245
     67  CA         9.6100   32.9380    9.7270 C.3   295  ARG295      0.1563
     68  C         10.7290   32.7220    8.7190 C.2   295  ARG295      0.2260
     69  O         10.9480   31.6170    8.2490 O.2   295  ARG295     -0.2867
     70  CB        10.1590   32.9510   11.1460 C.3   295  ARG295      0.0307
     71  CG         9.1590   33.4760   12.1120 C.3   295  ARG295      0.0489
     72  CD         9.7500   33.7760   13.4720 C.3   295  ARG295      0.2205
     73  NE         8.6220   33.9000   14.3860 N.pl3 295  ARG295     -0.0865
     74  CZ         8.1920   32.9390   15.1940 C.cat 295  ARG295      0.5346
     75  NH1        8.8300   31.7680   15.2840 N.pl3 295  ARG295      0.1354
     76  NH2        7.1270   33.1720   15.9520 N.pl3 295  ARG295      0.1354
     77  N         14.4470   35.0110   18.6280 N.3   305  TYR305     -0.1241
     78  CA        13.9770   35.0000   20.0370 C.3   305  TYR305      0.1605
     79  C         13.5880   36.3830   20.5920 C.2   305  TYR305      0.2264
     80  O         12.6160   36.5240   21.3620 O.2   305  TYR305     -0.2867
     81  CB        15.0410   34.3320   20.9040 C.3   305  TYR305      0.0534
     82  CG        14.5830   34.0850   22.3370 C.ar  305  TYR305     -0.0201
     83  CD1       14.0070   32.8760   22.6930 C.ar  305  TYR305     -0.0009
     84  CD2       14.6960   35.0890   23.3140 C.ar  305  TYR305     -0.0009
     85  CE1       13.5800   32.6340   23.9980 C.ar  305  TYR305      0.0417
     86  CE2       14.2740   34.8470   24.6540 C.ar  305  TYR305      0.0417
     87  CZ        13.7220   33.6140   24.9680 C.ar  305  TYR305      0.1957
     88  OH        13.3000   33.3310   26.2550 O.3   305  TYR305     -0.2866
     89  N          5.2410   35.2360   10.8200 N.3   335  PHE335     -0.1227
     90  CA         5.8050   35.6720   12.1010 C.3   335  PHE335      0.1736
     91  C          5.0030   35.4500   13.3760 C.2   335  PHE335      0.2595
     92  O          5.5880   35.1000   14.4080 O.2   335  PHE335     -0.2718
     93  CB         6.2820   37.1370   12.0510 C.3   335  PHE335      0.0547
     94  CG         7.0290   37.5620   13.2900 C.ar  335  PHE335     -0.0202
     95  CD1        8.3190   37.0690   13.5490 C.ar  335  PHE335     -0.0042
     96  CD2        6.4330   38.4160   14.2160 C.ar  335  PHE335     -0.0042
     97  CE1        9.0030   37.4450   14.6830 C.ar  335  PHE335     -0.0003
     98  CE2        7.1120   38.8000   15.3750 C.ar  335  PHE335     -0.0003
     99  CZ         8.4070   38.3160   15.6030 C.ar  335  PHE335     -0.0000
    100  N          3.6950   35.6810   13.3210 N.am  336  TRP336     -0.1962
    101  CA         2.8570   35.5280   14.5160 C.3   336  TRP336      0.1771
    102  C          1.4100   35.2330   14.2050 C.2   336  TRP336      0.2619
    103  O          0.7790   35.9120   13.3780 O.2   336  TRP336     -0.2715
    104  CB         2.9480   36.8020   15.3760 C.3   336  TRP336      0.0590
    105  CG         2.4320   36.6070   16.7790 C.ar  336  TRP336      0.0006
    106  CD1        1.1570   36.8600   17.2300 C.ar  336  TRP336      0.0946
    107  CD2        3.1730   36.1190   17.9050 C.ar  336  TRP336      0.0152
    108  NE1        1.0750   36.5730   18.5860 N.ar  336  TRP336     -0.2442
    109  CE2        2.2900   36.1030   19.0150 C.ar  336  TRP336      0.0810
    110  CE3        4.4710   35.6390   18.0730 C.ar  336  TRP336      0.0012
    111  CZ2        2.6940   35.6790   20.2890 C.ar  336  TRP336      0.0191
    112  CZ3        4.8680   35.2230   19.3510 C.ar  336  TRP336      0.0001
    113  CH2        3.9750   35.2190   20.4250 C.ar  336  TRP336      0.0015
    114  N          0.8780   34.2080   14.8650 N.am  337  ALA337     -0.1964
    115  CA        -0.5250   33.8110   14.7530 C.3   337  ALA337      0.1713
    116  C         -1.1890   33.8440   16.1280 C.2   337  ALA337      0.2458
    117  O         -0.4830   33.8120   17.1420 O.2   337  ALA337     -0.2730
    118  CB        -0.6360   32.4270   14.1870 C.3   337  ALA337      0.0333
    119  N         -2.5280   33.9230   16.1650 N.am  338  PRO338     -0.2716
    120  CA        -3.3050   33.8700   17.4110 C.3   338  PRO338      0.1536
    121  C         -3.3940   32.4170   17.8700 C.2   338  PRO338      0.2598
    122  O         -4.4050   31.7510   17.6870 O.2   338  PRO338     -0.2715
    123  CB        -4.6580   34.4320   16.9720 C.3   338  PRO338      0.0310
    124  CG        -4.8030   33.9690   15.5470 C.3   338  PRO338      0.0237
    125  CD        -3.4080   34.1310   14.9810 C.3   338  PRO338      0.0939
    126  N         -2.2760   31.9070   18.3980 N.am  339  GLN339     -0.1964
    127  CA        -2.1010   30.4780   18.5260 C.3   339  GLN339      0.1733
    128  C         -3.1410   29.8620   19.4630 C.2   339  GLN339      0.2616
    129  O         -3.6730   28.7700   19.2060 O.2   339  GLN339     -0.2715
    130  CB        -0.6920   30.2060   19.0590 C.3   339  GLN339      0.0408
    131  CG        -0.5100   28.7280   19.4190 C.3   339  GLN339      0.0908
    132  CD         0.9390   28.3420   19.5130 C.2   339  GLN339      0.2608
    133  OE1        1.7670   28.7510   18.6710 O.2   339  GLN339     -0.2717
    134  NE2        1.2700   27.5280   20.5210 N.am  339  GLN339     -0.0878
    135  N         -3.3980   30.5310   20.5870 N.am  340  ALA340     -0.1977
    136  CA        -4.3670   29.9770   21.5710 C.3   340  ALA340      0.1597
    137  C         -5.7250   29.7450   20.8940 C.2   340  ALA340      0.2287
    138  O         -6.3720   28.7300   21.1280 O.2   340  ALA340     -0.2864
    139  CB        -4.5230   30.9450   22.7560 C.3   340  ALA340      0.0319
    140  N          7.5800   22.9330   17.8490 N.3   354  HIS354     -0.1241
    141  CA         8.9840   22.8980   18.2980 C.3   354  HIS354      0.1621
    142  C          9.0770   22.2970   19.6980 C.2   354  HIS354      0.2264
    143  O         10.1540   22.0800   20.1670 O.2   354  HIS354     -0.2867
    144  CB         9.6440   24.2960   18.2120 C.3   354  HIS354      0.0745
    145  CG         9.2630   25.2460   19.3150 C.ar  354  HIS354      0.0817
    146  ND1        7.9550   25.4440   19.7180 N.ar  354  HIS354     -0.2268
    147  CD2       10.0120   26.1190   20.0270 C.ar  354  HIS354      0.1154
    148  CE1        7.9240   26.3910   20.6410 C.ar  354  HIS354      0.1986
    149  NE2        9.1620   26.8020   20.8640 N.ar  354  HIS354     -0.2212
    150  N          8.1360   23.6890   22.5260 N.3   356  GLY356     -0.1210
    151  CA         8.1140   24.6760   23.6020 C.3   356  GLY356      0.1956
    152  C          6.9670   24.3030   24.5370 C.2   356  GLY356      0.2612
    153  O          5.9830   23.7070   24.1040 O.2   356  GLY356     -0.2717
    154  N          7.1330   24.5550   25.8460 N.am  357  TRP357     -0.1962
    155  CA         6.2220   23.9410   26.7920 C.3   357  TRP357      0.1771
    156  C          4.8700   24.6290   26.7910 C.2   357  TRP357      0.2620
    157  O          3.8850   23.9590   26.9970 O.2   357  TRP357     -0.2715
    158  CB         6.8170   23.8900   28.2130 C.3   357  TRP357      0.0590
    159  CG         6.0820   22.9220   29.1200 C.ar  357  TRP357      0.0006
    160  CD1        5.4850   23.2120   30.3480 C.ar  357  TRP357      0.0946
    161  CD2        5.8790   21.5240   28.8940 C.ar  357  TRP357      0.0152
    162  NE1        4.9280   22.0620   30.8620 N.ar  357  TRP357     -0.2442
    163  CE2        5.1650   21.0160   30.0020 C.ar  357  TRP357      0.0810
    164  CE3        6.2710   20.6380   27.8730 C.ar  357  TRP357      0.0012
    165  CZ2        4.8210   19.6540   30.1230 C.ar  357  TRP357      0.0191
    166  CZ3        5.9400   19.2830   27.9910 C.ar  357  TRP357      0.0001
    167  CH2        5.1850   18.8060   29.0870 C.ar  357  TRP357      0.0015
    168  N          4.8170   25.9470   26.5890 N.am  358  ASN358     -0.1958
    169  CA         3.5090   26.6110   26.4800 C.3   358  ASN358      0.1819
    170  C          2.7380   26.0540   25.3040 C.2   358  ASN358      0.2622
    171  O          1.5550   25.7730   25.4370 O.2   358  ASN358     -0.2715
    172  CB         3.6750   28.1320   26.3470 C.3   358  ASN358      0.1195
    173  CG         4.3770   28.7100   27.5400 C.2   358  ASN358      0.2630
    174  OD1        5.5590   29.1260   27.4670 O.2   358  ASN358     -0.2716
    175  ND2        3.6850   28.7120   28.6540 N.am  358  ASN358     -0.0877
    176  N          3.4100   25.9370   24.1490 N.am  359  SER359     -0.1950
    177  CA         2.7150   25.3780   22.9670 C.3   359  SER359      0.1924
    178  C          2.2140   23.9880   23.3030 C.2   359  SER359      0.2314
    179  O          1.0810   23.6200   22.9500 O.2   359  SER359     -0.2863
    180  CB         3.6600   25.3200   21.7410 C.3   359  SER359      0.2116
    181  OG         3.9850   26.6230   21.3090 O.3   359  SER359     -0.2180
    182  N         -0.8110   24.1820   25.7160 N.3   362  GLU362     -0.1245
    183  CA        -1.9840   24.6690   24.9840 C.3   362  GLU362      0.1567
    184  C         -2.5780   23.4970   24.1790 C.2   362  GLU362      0.2260
    185  O         -3.8010   23.3260   24.1270 O.2   362  GLU362     -0.2867
    186  CB        -1.6280   25.8330   24.0760 C.3   362  GLU362      0.0388
    187  CG        -1.3560   27.1220   24.8670 C.3   362  GLU362      0.1160
    188  CD        -0.4500   28.1160   24.1640 C.2   362  GLU362      0.3649
    189  OE1       -0.1610   27.9700   22.9520 O.co2 362  GLU362     -0.2457
    190  OE2       -0.0590   29.0940   24.8470 O.co2 362  GLU362     -0.2457
    191  N         15.6950   24.1240   19.8370 N.3   376  TYR376     -0.1241
    192  CA        16.7230   24.7480   20.7070 C.3   376  TYR376      0.1605
    193  C         16.2630   24.6910   22.1530 C.2   376  TYR376      0.2264
    194  O         15.2820   24.0210   22.4330 O.2   376  TYR376     -0.2867
    195  CB        17.0400   26.2100   20.2530 C.3   376  TYR376      0.0534
    196  CG        15.8920   27.1830   20.3610 C.ar  376  TYR376     -0.0201
    197  CD1       15.7220   27.9390   21.5370 C.ar  376  TYR376     -0.0009
    198  CD2       14.9720   27.3640   19.3060 C.ar  376  TYR376     -0.0009
    199  CE1       14.6920   28.8280   21.6670 C.ar  376  TYR376      0.0417
    200  CE2       13.9190   28.2990   19.4240 C.ar  376  TYR376      0.0417
    201  CZ        13.8150   29.0320   20.6280 C.ar  376  TYR376      0.1957
    202  OH        12.8290   29.9470   20.8560 O.3   376  TYR376     -0.2866
    203  N         14.0490   21.8670   24.1210 N.3   379  GLN379     -0.1245
    204  CA        12.9840   21.2640   23.3170 C.3   379  GLN379      0.1566
    205  C         13.2460   19.7710   23.0160 C.2   379  GLN379      0.2260
    206  O         12.2860   18.9540   22.9500 O.2   379  GLN379     -0.2867
    207  CB        12.7130   22.1150   22.0510 C.3   379  GLN379      0.0367
    208  CG        12.0900   23.4700   22.3960 C.3   379  GLN379      0.0905
    209  CD        12.5570   24.5650   21.4540 C.2   379  GLN379      0.2608
    210  OE1       12.8250   24.2810   20.3030 O.2   379  GLN379     -0.2717
    211  NE2       12.6110   25.8360   21.9320 N.am  379  GLN379     -0.0878
@<TRIPOS>BOND
     1    69    68    2
     2    68    67    1
     3    66    67    1
     4    67    70    1
     5    59    60    1
     6    61    60    1
     7    61    62    2
     8    89    90    1
     9    60    63    1
    10    70    71    1
    11    93    90    1
    12    93    94    1
    13    90    91    1
    14    71    72    1
    15    31    32    1
    16    63    64    1
    17    63    65    1
    18    32    33    1
    19    32    35    1
    20    33    34    2
    21    94    95   ar
    22    94    96   ar
    23   100    91   am
    24   100   101    1
    25    91    92    2
    26   103   102    2
    27    72    73    1
    28    95    97   ar
    29    43    44    1
    30    37    39   ar
    31    37    36   ar
    32    35    36    1
    33   118   115    1
    34   102   101    1
    35   102   114   am
    36    96    98   ar
    37    39    41   ar
    38    73    74    2
    39    44    45    1
    40    44    47    1
    41   101   104    1
    42    36    38   ar
    43    97    99   ar
    44   115   114    1
    45   115   116    1
    46   125   124    1
    47   125   119    1
    48    74    75    1
    49    74    76    1
    50    45    46    2
    51    47    48    1
    52    98    99   ar
    53   104   105    1
    54   124   123    1
    55    41    42    1
    56    41    40   ar
    57    38    40   ar
    58   116   119   am
    59   116   117    2
    60   119   120    1
    61   105   106   ar
    62   105   107   ar
    63   123   120    1
    64   106   108   ar
    65   120   121    1
    66    52    51    2
    67   122   121    2
    68    49    50    1
    69   140   141    1
    70   121   126   am
    71   107   110   ar
    72   107   109   ar
    73   110   112   ar
    74   144   141    1
    75   144   145    1
    76   141   142    1
    77   126   127    1
    78   127   130    1
    79   127   128    1
    80   108   109   ar
    81    77    78    1
    82   133   132    2
    83    51    50    1
    84    51    53   am
    85    56    55    2
    86   109   111   ar
    87    55    54    1
    88   130   131    1
    89   129   128    2
    90   198   200   ar
    91   198   196   ar
    92   145   146   ar
    93   145   147   ar
    94   112   113   ar
    95   131   132    1
    96   200   201   ar
    97   128   135   am
    98   132   134   am
    99    54    53    1
   100    54    57    1
   101   142   143    2
   102   146   148   ar
   103   191   192    1
   104   147   149   ar
   105    78    79    1
   106    78    81    1
   107   195   196    1
   108   195   192    1
   109   111   113   ar
   110   210   209    2
   111   196   197   ar
   112   135   136    1
   113    79    80    2
   114   201   202    1
   115   201   199   ar
   116   148   149   ar
   117   192   193    1
   118    57    58    1
   119   137   138    2
   120   137   136    1
   121    81    82    1
   122   181   180    1
   123   209   211   am
   124   209   208    1
   125   197   199   ar
   126   136   139    1
   127   180   177    1
   128   207   208    1
   129   207   204    1
   130   193   194    2
   131    82    83   ar
   132    82    84   ar
   133   150   151    1
   134    83    85   ar
   135   206   205    2
   136   179   178    2
   137   189   188   ar
   138   177   178    1
   139   177   176    1
   140   205   204    1
   141     6     5    1
   142     6     7    1
   143    84    86   ar
   144   204   203    1
   145   151   152    1
   146     5     2    1
   147     7     8    1
   148    85    87   ar
   149   186   187    1
   150   186   183    1
   151   153   152    2
   152   185   184    2
   153   176   170   am
   154   188   190   ar
   155   188   187    1
   156   184   183    1
   157   152   154   am
   158    86    87   ar
   159    30    28    1
   160    87    88    1
   161   183   182    1
   162     1     2    1
   163     2     3    1
   164   170   171    2
   165   170   169    1
   166   154   155    1
   167     9     3   am
   168     9    10    1
   169     3     4    2
   170    28    27    1
   171   172   169    1
   172   172   173    1
   173   169   168    1
   174   168   156   am
   175    10    11    1
   176   156   155    1
   177   156   157    2
   178   155   158    1
   179    27    29    1
   180    27    24    1
   181   174   173    2
   182   173   175   am
   183   164   166   ar
   184   164   161   ar
   185   166   167   ar
   186    11    13   am
   187    11    12    2
   188   158   159    1
   189    13    14    1
   190    24    23    1
   191    24    25    1
   192   161   159   ar
   193   161   163   ar
   194   167   165   ar
   195   159   160   ar
   196    22    21   ar
   197    22    20   ar
   198    21    19   ar
   199    20    18   ar
   200    25    26    2
   201   163   165   ar
   202   163   162   ar
   203    14    15    1
   204    14    17    1
   205    19    18   ar
   206    18    17    1
   207   160   162   ar
   208    15    16    2
