@<TRIPOS>MOLECULE
tmp/2vgcC00.pdb
 115 115 0 0 0
SMALL
GASTEIGER

@<TRIPOS>ATOM
      1  N         19.6500    5.8360   45.8230 N.3    39  SER39      -0.1202
      2  CA        20.9810    5.7620   45.2420 C.3    39  SER39       0.2020
      3  C         20.9900    5.0930   43.8740 C.2    39  SER39       0.2619
      4  O         20.2710    4.1190   43.6580 O.2    39  SER39      -0.2717
      5  CB        21.9250    4.9700   46.1620 C.3    39  SER39       0.2103
      6  OG        23.2450    4.8520   45.6200 O.3    39  SER39      -0.2182
      7  N         21.8050    5.6250   42.9580 N.am   40  SER40      -0.1937
      8  CA        21.9900    5.0000   41.6480 C.3    40  SER40       0.2055
      9  C         22.7830    3.7370   42.0200 C.2    40  SER40       0.2643
     10  O         23.3140    3.6480   43.1280 O.2    40  SER40      -0.2714
     11  CB        22.8140    5.8980   40.7120 C.3    40  SER40       0.2130
     12  OG        22.0420    6.9780   40.2160 O.3    40  SER40      -0.2179
     13  N         22.9120    2.7820   41.1150 N.am   41  CYS41      -0.1953
     14  CA        23.6140    1.5500   41.4600 C.3    41  CYS41       0.1843
     15  C         24.1290    0.9090   40.1850 C.2    41  CYS41       0.2625
     16  O         24.0070    1.4870   39.1020 O.2    41  CYS41      -0.2714
     17  CB        22.6010    0.6200   42.1380 C.3    41  CYS41       0.0997
     18  SG        23.2390   -0.6270   43.2370 S.3    41  CYS41      -0.0797
     19  N         24.7360   -0.2650   40.3060 N.am   42  MET42      -0.1963
     20  CA        25.2350   -0.9710   39.1280 C.3    42  MET42       0.1736
     21  C         24.0990   -1.1910   38.1300 C.2    42  MET42       0.2617
     22  O         23.0040   -1.6160   38.5110 O.2    42  MET42      -0.2715
     23  CB        25.8380   -2.3300   39.5040 C.3    42  MET42       0.0427
     24  CG        27.2630   -2.2850   40.0400 C.3    42  MET42       0.0599
     25  SD        27.3370   -1.6200   41.6960 S.3    42  MET42      -0.1393
     26  CE        26.0950   -2.5880   42.4650 C.3    42  MET42       0.0692
     27  N         24.3810   -0.9140   36.8530 N.am   43  GLY43      -0.1955
     28  CA        23.3830   -1.0680   35.8070 C.3    43  GLY43       0.1869
     29  C         22.7850    0.2760   35.4190 C.2    43  GLY43       0.2309
     30  O         22.2020    0.4080   34.3420 O.2    43  GLY43      -0.2863
     31  N         24.6810    3.0720   35.3980 N.3    45  SER45      -0.1217
     32  CA        25.7740    3.8170   34.7730 C.3    45  SER45       0.1889
     33  C         25.4810    4.2920   33.3540 C.2    45  SER45       0.2288
     34  O         24.8880    3.5730   32.5690 O.2    45  SER45      -0.2866
     35  CB        27.0230    2.9590   34.7430 C.3    45  SER45       0.2089
     36  OG        27.5060    2.7560   36.0500 O.3    45  SER45      -0.2183
     37  N         25.3050    9.1580   35.2600 N.3    63  VAL63      -0.1231
     38  CA        25.6430    8.2350   36.3610 C.3    63  VAL63       0.1692
     39  C         27.0700    7.7150   36.1850 C.2    63  VAL63       0.2593
     40  O         27.3800    7.0170   35.2130 O.2    63  VAL63      -0.2718
     41  CB        24.6400    7.0950   36.4850 C.3    63  VAL63       0.0266
     42  CG1       24.9870    6.2280   37.6890 C.3    63  VAL63       0.0020
     43  CG2       23.2300    7.6600   36.6240 C.3    63  VAL63       0.0020
     44  N         27.9260    8.0560   37.1450 N.am   64  SER64      -0.1938
     45  CA        29.3230    7.7140   37.0490 C.3    64  SER64       0.2055
     46  C         29.8550    6.7320   38.0740 C.2    64  SER64       0.2643
     47  O         30.3380    5.6680   37.7110 O.2    64  SER64      -0.2714
     48  CB        30.1310    9.0010   37.0520 C.3    64  SER64       0.2130
     49  OG        31.4900    8.7430   36.8090 O.3    64  SER64      -0.2179
     50  N         29.8330    7.0860   39.3520 N.am   65  TRP65      -0.1959
     51  CA        30.3180    6.1570   40.3600 C.3    65  TRP65       0.1771
     52  C         29.7700    6.5160   41.7070 C.2    65  TRP65       0.2620
     53  O         28.9930    7.4510   41.8460 O.2    65  TRP65      -0.2715
     54  CB        31.8530    6.1010   40.3970 C.3    65  TRP65       0.0590
     55  CG        32.5460    7.4030   40.6930 C.ar   65  TRP65       0.0006
     56  CD1       32.8340    8.3910   39.8070 C.ar   65  TRP65       0.0946
     57  CD2       33.0640    7.8410   41.9630 C.ar   65  TRP65       0.0152
     58  NE1       33.5020    9.4180   40.4370 N.ar   65  TRP65      -0.2442
     59  CE2       33.6510    9.1060   41.7620 C.ar   65  TRP65       0.0810
     60  CE3       33.0830    7.2890   43.2510 C.ar   65  TRP65       0.0012
     61  CZ2       34.2490    9.8320   42.8030 C.ar   65  TRP65       0.0191
     62  CZ3       33.6790    8.0150   44.2840 C.ar   65  TRP65       0.0001
     63  CH2       34.2500    9.2680   44.0530 C.ar   65  TRP65       0.0015
     64  N         30.1700    5.7480   42.6980 N.am   66  GLY66      -0.1940
     65  CA        29.7140    5.9940   44.0420 C.3    66  GLY66       0.2014
     66  C         30.0380    4.8080   44.9270 C.2    66  GLY66       0.2640
     67  O         30.9030    3.9950   44.6160 O.2    66  GLY66      -0.2714
     68  N         29.2920    4.7060   46.0160 N.am   67  SER67      -0.1935
     69  CA        29.4290    3.6600   47.0200 C.3    67  SER67       0.2055
     70  C         29.4270    2.2530   46.4320 C.2    67  SER67       0.2643
     71  O         28.4780    1.8730   45.7610 O.2    67  SER67      -0.2714
     72  CB        28.2710    3.8340   48.0170 C.3    67  SER67       0.2130
     73  OG        28.0680    2.7020   48.8330 O.3    67  SER67      -0.2179
     74  N         30.4270    1.4410   46.7760 N.am   68  SER68      -0.1949
     75  CA        30.4860    0.0740   46.2590 C.3    68  SER68       0.1924
     76  C         29.2820   -0.7480   46.6950 C.2    68  SER68       0.2314
     77  O         29.0370   -1.8200   46.1710 O.2    68  SER68      -0.2863
     78  CB        31.7890   -0.6210   46.6680 C.3    68  SER68       0.2116
     79  OG        31.9070   -0.7660   48.0730 O.3    68  SER68      -0.2180
     80  N         26.1490    0.9740   47.1030 N.3    70  CYS70      -0.1235
     81  CA        24.9950    1.7950   46.7410 C.3    70  CYS70       0.1677
     82  C         24.2590    2.3130   47.9560 C.2    70  CYS70       0.2270
     83  O         23.0410    2.3680   47.9740 O.2    70  CYS70      -0.2867
     84  CB        24.0400    1.0170   45.8370 C.3    70  CYS70       0.0956
     85  SG        24.8770    0.4010   44.3760 S.3    70  CYS70      -0.0801
     86  N         26.5420   10.1680   48.9080 N.3    75  PRO75      -0.2102
     87  CA        26.0950   10.7380   47.6340 C.3    75  PRO75       0.1504
     88  C         26.6940   10.0320   46.4140 C.2    75  PRO75       0.2576
     89  O         27.8110    9.5010   46.4650 O.2    75  PRO75      -0.2718
     90  CB        26.5620   12.1900   47.7290 C.3    75  PRO75       0.0282
     91  CG        27.8080   12.0790   48.5360 C.3    75  PRO75       0.0208
     92  CD        27.4150   11.1060   49.6240 C.3    75  PRO75       0.0893
     93  N         25.8990    9.9540   45.3530 N.am   76  GLY76      -0.1943
     94  CA        26.3610    9.3340   44.1180 C.3    76  GLY76       0.2014
     95  C         27.1410   10.3720   43.3280 C.2    76  GLY76       0.2639
     96  O         26.9100   11.5730   43.5180 O.2    76  GLY76      -0.2714
     97  N         28.0650    9.9270   42.4760 N.am   77  VAL77      -0.1963
     98  CA        28.8760   10.8280   41.6810 C.3    77  VAL77       0.1727
     99  C         28.5170   10.6640   40.2020 C.2    77  VAL77       0.2616
    100  O         28.4040    9.5560   39.6920 O.2    77  VAL77      -0.2715
    101  CB        30.3660   10.6020   41.9350 C.3    77  VAL77       0.0290
    102  CG1       31.1770   11.6960   41.2870 C.3    77  VAL77       0.0023
    103  CG2       30.6230   10.6030   43.4190 C.3    77  VAL77       0.0023
    104  N         28.2810   11.7960   39.5560 N.am   78  TYR78      -0.1974
    105  CA        27.8550   11.8760   38.1620 C.3    78  TYR78       0.1639
    106  C         28.8120   12.7510   37.3730 C.2    78  TYR78       0.2290
    107  O         29.4270   13.6660   37.9310 O.2    78  TYR78      -0.2864
    108  CB        26.4670   12.5330   38.1220 C.3    78  TYR78       0.0560
    109  CG        25.4220   11.8050   38.9350 C.ar   78  TYR78      -0.0198
    110  CD1       25.4260   11.8720   40.3280 C.ar   78  TYR78      -0.0009
    111  CD2       24.4840   10.9770   38.3230 C.ar   78  TYR78      -0.0009
    112  CE1       24.5270   11.1230   41.0940 C.ar   78  TYR78       0.0417
    113  CE2       23.5730   10.2210   39.0820 C.ar   78  TYR78       0.0417
    114  CZ        23.6090   10.3000   40.4690 C.ar   78  TYR78       0.1957
    115  OH        22.7520    9.5520   41.2310 O.3    78  TYR78      -0.2866
@<TRIPOS>BOND
     1    34    33    2
     2    33    32    1
     3    30    29    2
     4    35    32    1
     5    35    36    1
     6    32    31    1
     7    40    39    2
     8    37    38    1
     9    29    28    1
    10    28    27    1
    11    39    38    1
    12    39    44   am
    13    38    41    1
    14    41    43    1
    15    41    42    1
    16    49    48    1
    17    27    21   am
    18    45    48    1
    19    45    44    1
    20    45    46    1
    21   106   107    2
    22   106   105    1
    23    47    46    2
    24    46    50   am
    25   108   105    1
    26   108   109    1
    27    21    22    2
    28    21    20    1
    29   105   104    1
    30   111   109   ar
    31   111   113   ar
    32   109   110   ar
    33   113   114   ar
    34    16    15    2
    35    20    23    1
    36    20    19    1
    37    50    51    1
    38    23    24    1
    39   104    99   am
    40   100    99    2
    41    56    58   ar
    42    56    55   ar
    43    24    25    1
    44    15    19   am
    45    15    14    1
    46    99    98    1
    47    12    11    1
    48   110   112   ar
    49    51    54    1
    50    51    52    1
    51    54    55    1
    52    58    59   ar
    53   114   112   ar
    54   114   115    1
    55    55    57   ar
    56    11     8    1
    57    13    14    1
    58    13     9   am
    59   102   101    1
    60    14    17    1
    61     8     9    1
    62     8     7    1
    63    98   101    1
    64    98    97    1
    65    25    26    1
    66    52    53    2
    67    52    64   am
    68    59    57   ar
    69    59    61   ar
    70   101   103    1
    71    57    60   ar
    72     9    10    2
    73    17    18    1
    74    97    95   am
    75    64    65    1
    76    61    63   ar
    77     7     3   am
    78    18    85    1
    79    60    62   ar
    80    95    96    2
    81    95    94    1
    82     4     3    2
    83     3     2    1
    84    65    66    1
    85    63    62   ar
    86    94    93    1
    87    85    84    1
    88    67    66    2
    89    66    68   am
    90     2     1    1
    91     2     5    1
    92    93    88   am
    93     6     5    1
    94    71    70    2
    95    84    81    1
    96    68    69    1
    97    77    76    2
    98    75    78    1
    99    75    76    1
   100    75    74    1
   101    88    89    2
   102    88    87    1
   103    70    74   am
   104    70    69    1
   105    78    79    1
   106    81    80    1
   107    81    82    1
   108    69    72    1
   109    87    90    1
   110    87    86    1
   111    90    91    1
   112    82    83    2
   113    72    73    1
   114    91    92    1
   115    86    92    1
