@<TRIPOS>MOLECULE
tmp/2vgdA00.pdb
 155 149 0 0 0
SMALL
GASTEIGER

@<TRIPOS>ATOM
      1  N          6.6690  -21.6380   -0.6270 N.3    47  ASN47      -0.1240
      2  CA         5.8210  -21.4510   -1.8140 C.3    47  ASN47       0.1653
      3  C          5.8960  -20.0180   -2.3060 C.2    47  ASN47       0.2266
      4  O          5.8830  -19.0800   -1.5110 O.2    47  ASN47      -0.2867
      5  CB         4.3710  -21.8280   -1.4890 C.3    47  ASN47       0.1155
      6  CG         3.4800  -21.9510   -2.7330 C.2    47  ASN47       0.2627
      7  OD1        3.9100  -22.3590   -3.8350 O.2    47  ASN47      -0.2716
      8  ND2        2.2200  -21.6310   -2.5480 N.am   47  ASN47      -0.0877
      9  N          4.8050  -17.5300   -6.1170 N.3    49  VAL49      -0.1245
     10  CA         4.2860  -17.4690   -7.4880 C.3    49  VAL49       0.1561
     11  C          4.3040  -16.0140   -7.9400 C.2    49  VAL49       0.2260
     12  O          3.9760  -15.0950   -7.1770 O.2    49  VAL49      -0.2867
     13  CB         2.8640  -18.1530   -7.6380 C.3    49  VAL49       0.0252
     14  CG1        1.8290  -17.5030   -6.7270 C.3    49  VAL49       0.0019
     15  CG2        2.3820  -18.1730   -9.1130 C.3    49  VAL49       0.0019
     16  N         10.5510  -28.9190   -7.5680 N.3    73  ASN73      -0.1240
     17  CA         9.1340  -28.6500   -7.8490 C.3    73  ASN73       0.1653
     18  C          8.9180  -27.1740   -8.2250 C.2    73  ASN73       0.2266
     19  O          9.0410  -26.2910   -7.3750 O.2    73  ASN73      -0.2867
     20  CB         8.2720  -29.0510   -6.6550 C.3    73  ASN73       0.1155
     21  CG         6.7830  -29.0070   -6.9600 C.2    73  ASN73       0.2627
     22  OD1        6.3490  -28.3600   -7.9180 O.2    73  ASN73      -0.2716
     23  ND2        5.9900  -29.6830   -6.1300 N.am   73  ASN73      -0.0877
     24  N          6.5170  -24.6930  -11.4420 N.3    75  TYR75      -0.1241
     25  CA         5.5570  -24.6850  -12.5660 C.3    75  TYR75       0.1605
     26  C          5.7810  -23.4540  -13.4230 C.2    75  TYR75       0.2264
     27  O          6.1300  -22.3840  -12.9070 O.2    75  TYR75      -0.2867
     28  CB         4.0930  -24.5830  -12.1040 C.3    75  TYR75       0.0534
     29  CG         3.6500  -25.4770  -10.9810 C.ar   75  TYR75      -0.0201
     30  CD1        4.0570  -26.8220  -10.9140 C.ar   75  TYR75      -0.0009
     31  CD2        2.7910  -24.9860   -9.9920 C.ar   75  TYR75      -0.0009
     32  CE1        3.6530  -27.6480   -9.8720 C.ar   75  TYR75       0.0417
     33  CE2        2.3630  -25.8160   -8.9380 C.ar   75  TYR75       0.0417
     34  CZ         2.7860  -27.1520   -8.9060 C.ar   75  TYR75       0.1957
     35  OH         2.3730  -27.9750   -7.8730 O.3    75  TYR75      -0.2866
     36  N         -8.6960  -20.0490   -8.0670 N.3    88  GLU88      -0.1245
     37  CA        -7.3020  -19.9260   -8.5390 C.3    88  GLU88       0.1567
     38  C         -7.1700  -20.8730   -9.7300 C.2    88  GLU88       0.2260
     39  O         -7.4740  -22.0790   -9.6110 O.2    88  GLU88      -0.2867
     40  CB        -6.3310  -20.3140   -7.4170 C.3    88  GLU88       0.0388
     41  CG        -4.8150  -20.1990   -7.7530 C.3    88  GLU88       0.1160
     42  CD        -3.9360  -20.6150   -6.5570 C.2    88  GLU88       0.3649
     43  OE1       -4.3170  -21.5900   -5.8540 O.co2  88  GLU88      -0.2457
     44  OE2       -2.8700  -19.9930   -6.3280 O.co2  88  GLU88      -0.2457
     45  N         -4.9780  -22.3630  -13.4240 N.3    90  TYR90      -0.1241
     46  CA        -3.6680  -22.6270  -14.0470 C.3    90  TYR90       0.1605
     47  C         -3.8630  -23.2120  -15.4430 C.2    90  TYR90       0.2264
     48  O         -4.7200  -24.1060  -15.6450 O.2    90  TYR90      -0.2867
     49  CB        -2.9100  -23.6970  -13.2580 C.3    90  TYR90       0.0534
     50  CG        -2.3940  -23.3590  -11.8780 C.ar   90  TYR90      -0.0201
     51  CD1       -1.0600  -22.9720  -11.7060 C.ar   90  TYR90      -0.0009
     52  CD2       -3.2050  -23.5090  -10.7400 C.ar   90  TYR90      -0.0009
     53  CE1       -0.5370  -22.7040  -10.4350 C.ar   90  TYR90       0.0417
     54  CE2       -2.6920  -23.2390   -9.4530 C.ar   90  TYR90       0.0417
     55  CZ        -1.3570  -22.8550   -9.3150 C.ar   90  TYR90       0.1957
     56  OH        -0.8520  -22.6080   -8.0640 O.3    90  TYR90      -0.2866
     57  N         10.1100  -31.2860  -11.3010 N.3    97  SER97      -0.1202
     58  CA        10.2530  -32.6780  -10.8910 C.3    97  SER97       0.2020
     59  C          8.9160  -33.3890  -10.7060 C.2    97  SER97       0.2618
     60  O          8.8580  -34.6230  -10.7220 O.2    97  SER97      -0.2717
     61  CB        11.0640  -32.7350   -9.5880 C.3    97  SER97       0.2103
     62  OG        10.4090  -32.0340   -8.5450 O.3    97  SER97      -0.2182
     63  N          7.8460  -32.6080  -10.5470 N.am   98  TRP98      -0.1975
     64  CA         6.5540  -33.1260  -10.1180 C.3    98  TRP98       0.1640
     65  C          5.4280  -32.5470  -10.9920 C.2    98  TRP98       0.2290
     66  O          5.2460  -31.3250  -11.0490 O.2    98  TRP98      -0.2864
     67  CB         6.3540  -32.7430   -8.6470 C.3    98  TRP98       0.0576
     68  CG         5.1760  -33.3680   -7.9590 C.ar   98  TRP98       0.0006
     69  CD1        5.0940  -34.6430   -7.4640 C.ar   98  TRP98       0.0946
     70  CD2        3.9160  -32.7370   -7.6590 C.ar   98  TRP98       0.0152
     71  NE1        3.8590  -34.8490   -6.8860 N.ar   98  TRP98      -0.2442
     72  CE2        3.1170  -33.6990   -6.9930 C.ar   98  TRP98       0.0810
     73  CE3        3.3860  -31.4570   -7.8910 C.ar   98  TRP98       0.0012
     74  CZ2        1.8150  -33.4190   -6.5520 C.ar   98  TRP98       0.0191
     75  CZ3        2.0890  -31.1810   -7.4610 C.ar   98  TRP98       0.0001
     76  CH2        1.3230  -32.1560   -6.7900 C.ar   98  TRP98       0.0015
     77  N         -1.6790  -31.5110  -10.7170 N.3   101  PRO101     -0.2116
     78  CA        -1.8430  -31.1490   -9.3060 C.3   101  PRO101      0.1372
     79  C         -1.6750  -32.2980   -8.2830 C.2   101  PRO101      0.2244
     80  O         -1.9190  -32.0920   -7.0960 O.2   101  PRO101     -0.2868
     81  CB        -3.2870  -30.6590   -9.2650 C.3   101  PRO101      0.0268
     82  CG        -3.9860  -31.4910  -10.2820 C.3   101  PRO101      0.0207
     83  CD        -2.9760  -31.8120  -11.3580 C.3   101  PRO101      0.0892
     84  N         -4.6260  -34.7100   -5.1420 N.3   104  ASP104     -0.1239
     85  CA        -5.6760  -33.7840   -4.7270 C.3   104  ASP104      0.1674
     86  C         -6.4000  -33.1650   -5.9480 C.2   104  ASP104      0.2266
     87  O         -7.3270  -32.4520   -5.7960 O.2   104  ASP104     -0.2867
     88  CB        -5.0900  -32.6960   -3.8390 C.3   104  ASP104      0.1410
     89  CG        -3.8680  -32.0820   -4.4550 C.2   104  ASP104      0.3668
     90  OD1       -2.7480  -32.6130   -4.2140 O.co2 104  ASP104     -0.2456
     91  OD2       -4.0420  -31.1130   -5.2350 O.co2 104  ASP104     -0.2456
     92  N         -8.2660  -26.1470   -2.1720 N.3   125  ARG125     -0.1245
     93  CA        -7.3000  -25.6120   -1.2330 C.3   125  ARG125      0.1563
     94  C         -8.0530  -25.3060    0.0640 C.2   125  ARG125      0.2260
     95  O         -9.1090  -24.6880    0.0220 O.2   125  ARG125     -0.2867
     96  CB        -6.6330  -24.3610   -1.8120 C.3   125  ARG125      0.0307
     97  CG        -5.8450  -24.6590   -3.1240 C.3   125  ARG125      0.0489
     98  CD        -4.5240  -25.3830   -2.8370 C.3   125  ARG125      0.2205
     99  NE        -3.6010  -24.4480   -2.2010 N.pl3 125  ARG125     -0.0865
    100  CZ        -2.6380  -24.7760   -1.3460 C.cat 125  ARG125      0.5346
    101  NH1       -2.4220  -26.0550   -1.0300 N.pl3 125  ARG125      0.1354
    102  NH2       -1.8720  -23.8200   -0.8240 N.pl3 125  ARG125      0.1354
    103  N         -9.4220  -24.8220   -7.1700 N.3   139  GLN139     -0.1245
    104  CA        -8.5090  -24.5080   -8.2770 C.3   139  GLN139      0.1566
    105  C         -8.9840  -25.2370   -9.5280 C.2   139  GLN139      0.2260
    106  O         -9.4170  -26.4090   -9.4530 O.2   139  GLN139     -0.2867
    107  CB        -7.1110  -25.0240   -7.9720 C.3   139  GLN139      0.0367
    108  CG        -6.4410  -24.4910   -6.7200 C.3   139  GLN139      0.0905
    109  CD        -5.1110  -25.1880   -6.4670 C.2   139  GLN139      0.2608
    110  OE1       -5.0140  -26.4200   -6.5510 O.2   139  GLN139     -0.2717
    111  NE2       -4.0880  -24.4090   -6.1300 N.am  139  GLN139     -0.0878
    112  N         -7.4720  -26.5150  -13.1490 N.3   141  TRP141     -0.1241
    113  CA        -6.1670  -26.7550  -13.7950 C.3   141  TRP141      0.1605
    114  C         -6.3700  -27.3040  -15.2130 C.2   141  TRP141      0.2264
    115  O         -7.1990  -28.2010  -15.4200 O.2   141  TRP141     -0.2867
    116  CB        -5.3730  -27.8180  -13.0360 C.3   141  TRP141      0.0550
    117  CG        -4.9800  -27.5350  -11.6410 C.ar  141  TRP141      0.0003
    118  CD1       -5.7740  -27.6210  -10.5010 C.ar  141  TRP141      0.0946
    119  CD2       -3.6660  -27.1870  -11.1930 C.ar  141  TRP141      0.0152
    120  NE1       -5.0060  -27.3380   -9.3810 N.ar  141  TRP141     -0.2442
    121  CE2       -3.7140  -27.0750   -9.7760 C.ar  141  TRP141      0.0810
    122  CE3       -2.4420  -26.9780  -11.8540 C.ar  141  TRP141      0.0012
    123  CZ2       -2.5760  -26.7400   -9.0020 C.ar  141  TRP141      0.0191
    124  CZ3       -1.3100  -26.6520  -11.0880 C.ar  141  TRP141      0.0001
    125  CH2       -1.3940  -26.5230   -9.6720 C.ar  141  TRP141      0.0015
    126  N          6.0080  -20.6360  -10.6050 N.3   180  GLU180     -0.1245
    127  CA         5.6730  -21.0350   -9.2450 C.3   180  GLU180      0.1567
    128  C          6.7370  -22.0060   -8.7600 C.2   180  GLU180      0.2260
    129  O          7.2030  -22.8570   -9.5390 O.2   180  GLU180     -0.2867
    130  CB         4.2670  -21.6590   -9.1470 C.3   180  GLU180      0.0388
    131  CG         3.9480  -22.1620   -7.7040 C.3   180  GLU180      0.1160
    132  CD         2.4620  -22.2600   -7.3780 C.2   180  GLU180      0.3649
    133  OE1        1.6300  -21.8920   -8.2330 O.co2 180  GLU180     -0.2457
    134  OE2        2.1380  -22.7070   -6.2470 O.co2 180  GLU180     -0.2457
    135  N          7.7220  -24.6620   -5.3150 N.3   182  TYR182     -0.1227
    136  CA         7.3160  -25.3080   -4.0610 C.3   182  TYR182      0.1736
    137  C          8.4650  -26.1100   -3.4420 C.2   182  TYR182      0.2595
    138  O          8.9180  -27.1100   -4.0210 O.2   182  TYR182     -0.2718
    139  CB         6.0940  -26.2210   -4.2420 C.3   182  TYR182      0.0548
    140  CG         5.5560  -26.7550   -2.9120 C.ar  182  TYR182     -0.0200
    141  CD1        4.7740  -25.9420   -2.0790 C.ar  182  TYR182     -0.0009
    142  CD2        5.8280  -28.0700   -2.4910 C.ar  182  TYR182     -0.0009
    143  CE1        4.2810  -26.4060   -0.8570 C.ar  182  TYR182      0.0417
    144  CE2        5.3320  -28.5470   -1.2540 C.ar  182  TYR182      0.0417
    145  CZ         4.5590  -27.7040   -0.4540 C.ar  182  TYR182      0.1957
    146  OH         4.0460  -28.1430    0.7600 O.3   182  TYR182     -0.2866
    147  N          8.9100  -25.6520   -2.2700 N.am  183  GLN183     -0.1979
    148  CA         9.9820  -26.2920   -1.4880 C.3   183  GLN183      0.1601
    149  C         11.1330  -26.7020   -2.3980 C.2   183  GLN183      0.2287
    150  O         11.5490  -27.8600   -2.4390 O.2   183  GLN183     -0.2864
    151  CB         9.4260  -27.4610   -0.6520 C.3   183  GLN183      0.0394
    152  CG         8.3930  -27.0040    0.3840 C.3   183  GLN183      0.0908
    153  CD         7.8350  -28.1400    1.2230 C.2   183  GLN183      0.2608
    154  OE1        8.1710  -29.3130    1.0200 O.2   183  GLN183     -0.2717
    155  NE2        6.9580  -27.7970    2.1560 N.am  183  GLN183     -0.0878
@<TRIPOS>BOND
     1    48    47    2
     2    47    46    1
     3   115   114    2
     4   114   113    1
     5    46    45    1
     6    46    49    1
     7   113   112    1
     8   113   116    1
     9    26    27    2
    10    26    25    1
    11    49    50    1
    12   116   117    1
    13    25    28    1
    14    25    24    1
    15    28    29    1
    16    50    51   ar
    17    50    52   ar
    18   122   119   ar
    19   122   124   ar
    20    51    53   ar
    21   117   119   ar
    22   117   118   ar
    23    83    77    1
    24    83    82    1
    25    57    58    1
    26   119   121   ar
    27   124   125   ar
    28    66    65    2
    29    65    64    1
    30    29    30   ar
    31    29    31   ar
    32    30    32   ar
    33    58    59    1
    34    58    61    1
    35    52    54   ar
    36    60    59    2
    37    77    78    1
    38    59    63   am
    39   126   127    1
    40    63    64    1
    41   118   120   ar
    42    53    55   ar
    43    82    81    1
    44    64    67    1
    45    31    33   ar
    46    32    34   ar
    47   121   120   ar
    48   121   123   ar
    49    38    39    2
    50    38    37    1
    51   125   123   ar
    52    61    62    1
    53   129   128    2
    54   105   106    2
    55   105   104    1
    56    54    55   ar
    57    55    56    1
    58    78    81    1
    59    78    79    1
    60   127   130    1
    61   127   128    1
    62   130   131    1
    63    15    13    1
    64    33    34   ar
    65    34    35    1
    66    67    68    1
    67    37    36    1
    68    37    40    1
    69    79    80    2
    70   104   107    1
    71   104   103    1
    72   133   132   ar
    73    18    17    1
    74    18    19    2
    75   107   108    1
    76    68    70   ar
    77    68    69   ar
    78    11    10    1
    79    11    12    2
    80    22    21    2
    81    73    70   ar
    82    73    75   ar
    83    17    16    1
    84    17    20    1
    85    41    40    1
    86    41    42    1
    87   131   132    1
    88    70    72   ar
    89    13    10    1
    90    13    14    1
    91    10     9    1
    92    69    71   ar
    93    75    76   ar
    94   132   134   ar
    95    72    71   ar
    96    72    74   ar
    97    21    20    1
    98    21    23   am
    99    76    74   ar
   100   108   109    1
   101    42    44   ar
   102    42    43   ar
   103   110   109    2
   104   109   111   am
   105    86    87    2
   106    86    85    1
   107   135   136    1
   108    91    89   ar
   109    84    85    1
   110    85    88    1
   111    89    90   ar
   112    89    88    1
   113   139   136    1
   114   139   140    1
   115   136   137    1
   116   138   137    2
   117     7     6    2
   118   137   147   am
   119    97    98    1
   120    97    96    1
   121   140   142   ar
   122   140   141   ar
   123    98    99    1
   124     6     8   am
   125     6     5    1
   126   142   144   ar
   127   150   149    2
   128   149   148    1
   129     3     2    1
   130     3     4    2
   131   147   148    1
   132    99   100    2
   133    92    93    1
   134   141   143   ar
   135     2     5    1
   136     2     1    1
   137    96    93    1
   138   148   151    1
   139   100   101    1
   140   100   102    1
   141   144   145   ar
   142    93    94    1
   143   143   145   ar
   144   151   152    1
   145   145   146    1
   146    95    94    2
   147   152   153    1
   148   154   153    2
   149   153   155   am
