@<TRIPOS>MOLECULE
tmp/2vgdA02.pdb
 120 115 0 0 0
SMALL
GASTEIGER

@<TRIPOS>ATOM
      1  N          6.6580   -9.7410   -1.2710 N.3     8  SER8       -0.1217
      2  CA         5.3840   -9.7450   -2.0160 C.3     8  SER8        0.1889
      3  C          4.9490   -8.3400   -2.4040 C.2     8  SER8        0.2288
      4  O          4.9270   -7.4370   -1.5530 O.2     8  SER8       -0.2866
      5  CB         4.2940  -10.4100   -1.1790 C.3     8  SER8        0.2089
      6  OG         4.6580  -11.7400   -0.8520 O.3     8  SER8       -0.2183
      7  N          2.5140   -6.1140   -5.8040 N.3    10  THR10      -0.1218
      8  CA         1.8910   -6.0230   -7.1240 C.3    10  THR10       0.1862
      9  C          2.0750   -4.5900   -7.6330 C.2    10  THR10       0.2287
     10  O          2.3670   -3.6570   -6.8440 O.2    10  THR10      -0.2866
     11  CB         0.3620   -6.3820   -7.0960 C.3    10  THR10       0.1770
     12  OG1       -0.3400   -5.3680   -6.3650 O.3    10  THR10      -0.2211
     13  CG2        0.0960   -7.7840   -6.4700 C.3    10  THR10       0.0375
     14  N          2.2940   -9.4630  -10.4820 N.3    19  SER19      -0.1217
     15  CA         2.0250   -9.9390   -9.1220 C.3    19  SER19       0.1889
     16  C          3.1920  -10.8370   -8.7350 C.2    19  SER19       0.2288
     17  O          3.6610  -11.6510   -9.5470 O.2    19  SER19      -0.2866
     18  CB         0.6700  -10.6780   -9.0030 C.3    19  SER19       0.2089
     19  OG         0.5060  -11.1950   -7.6810 O.3    19  SER19      -0.2183
     20  N          4.3210  -13.0350   -5.1690 N.3    21  TRP21      -0.1241
     21  CA         4.0120  -13.4370   -3.7940 C.3    21  TRP21       0.1605
     22  C          4.9070  -14.5860   -3.3400 C.2    21  TRP21       0.2264
     23  O          5.1660  -15.4950   -4.0990 O.2    21  TRP21      -0.2867
     24  CB         2.5320  -13.8370   -3.6810 C.3    21  TRP21       0.0550
     25  CG         2.1520  -14.3660   -2.3110 C.ar   21  TRP21       0.0003
     26  CD1        1.6840  -13.6370   -1.2600 C.ar   21  TRP21       0.0946
     27  CD2        2.1880  -15.7290   -1.8740 C.ar   21  TRP21       0.0152
     28  NE1        1.4550  -14.4510   -0.1820 N.ar   21  TRP21      -0.2442
     29  CE2        1.7340  -15.7440   -0.5310 C.ar   21  TRP21       0.0810
     30  CE3        2.5440  -16.9450   -2.4880 C.ar   21  TRP21       0.0012
     31  CZ2        1.6560  -16.9220    0.2270 C.ar   21  TRP21       0.0191
     32  CZ3        2.4510  -18.1340   -1.7320 C.ar   21  TRP21       0.0001
     33  CH2        2.0010  -18.1050   -0.3880 C.ar   21  TRP21       0.0015
     34  N          6.6690  -21.6380   -0.6270 N.3    47  ASN47      -0.1240
     35  CA         5.8210  -21.4510   -1.8140 C.3    47  ASN47       0.1653
     36  C          5.8960  -20.0180   -2.3060 C.2    47  ASN47       0.2266
     37  O          5.8830  -19.0800   -1.5110 O.2    47  ASN47      -0.2867
     38  CB         4.3710  -21.8280   -1.4890 C.3    47  ASN47       0.1155
     39  CG         3.4800  -21.9510   -2.7330 C.2    47  ASN47       0.2627
     40  OD1        3.9100  -22.3590   -3.8350 O.2    47  ASN47      -0.2716
     41  ND2        2.2200  -21.6310   -2.5480 N.am   47  ASN47      -0.0877
     42  N          4.8050  -17.5300   -6.1170 N.3    49  VAL49      -0.1245
     43  CA         4.2860  -17.4690   -7.4880 C.3    49  VAL49       0.1561
     44  C          4.3040  -16.0140   -7.9400 C.2    49  VAL49       0.2260
     45  O          3.9760  -15.0950   -7.1770 O.2    49  VAL49      -0.2867
     46  CB         2.8640  -18.1530   -7.6380 C.3    49  VAL49       0.0252
     47  CG1        1.8290  -17.5030   -6.7270 C.3    49  VAL49       0.0019
     48  CG2        2.3820  -18.1730   -9.1130 C.3    49  VAL49       0.0019
     49  N         -1.6820  -18.1240  -15.1150 N.3    79  TYR79      -0.1241
     50  CA        -2.1020  -18.1880  -13.7130 C.3    79  TYR79       0.1605
     51  C         -3.0000  -16.9930  -13.3870 C.2    79  TYR79       0.2264
     52  O         -2.6880  -15.8570  -13.7410 O.2    79  TYR79      -0.2867
     53  CB        -0.8490  -18.1980  -12.8180 C.3    79  TYR79       0.0534
     54  CG        -1.1200  -18.1300  -11.3180 C.ar   79  TYR79      -0.0201
     55  CD1       -1.5260  -19.2610  -10.6040 C.ar   79  TYR79      -0.0009
     56  CD2       -0.9590  -16.9350  -10.6270 C.ar   79  TYR79      -0.0009
     57  CE1       -1.7690  -19.1910   -9.2180 C.ar   79  TYR79       0.0417
     58  CE2       -1.1980  -16.8440   -9.2410 C.ar   79  TYR79       0.0417
     59  CZ        -1.5990  -17.9750   -8.5510 C.ar   79  TYR79       0.1957
     60  OH        -1.8270  -17.8790   -7.1990 O.3    79  TYR79      -0.2866
     61  N         -6.8200  -15.4600  -10.9800 N.3    81  TRP81      -0.1241
     62  CA        -7.8660  -15.6060   -9.9890 C.3    81  TRP81       0.1605
     63  C         -9.1810  -15.0250  -10.4780 C.2    81  TRP81       0.2264
     64  O         -9.2130  -14.0860  -11.3000 O.2    81  TRP81      -0.2867
     65  CB        -7.4840  -14.8530   -8.7130 C.3    81  TRP81       0.0550
     66  CG        -6.3530  -15.4210   -7.9830 C.ar   81  TRP81       0.0003
     67  CD1       -5.0160  -15.2240   -8.2370 C.ar   81  TRP81       0.0946
     68  CD2       -6.4300  -16.2850   -6.8470 C.ar   81  TRP81       0.0152
     69  NE1       -4.2510  -15.9300   -7.3210 N.ar   81  TRP81      -0.2442
     70  CE2       -5.0950  -16.5790   -6.4530 C.ar   81  TRP81       0.0810
     71  CE3       -7.4970  -16.8370   -6.1150 C.ar   81  TRP81       0.0012
     72  CZ2       -4.7980  -17.4070   -5.3630 C.ar   81  TRP81       0.0191
     73  CZ3       -7.2050  -17.6560   -5.0160 C.ar   81  TRP81       0.0001
     74  CH2       -5.8650  -17.9320   -4.6520 C.ar   81  TRP81       0.0015
     75  N         -8.6960  -20.0490   -8.0670 N.3    88  GLU88      -0.1245
     76  CA        -7.3020  -19.9260   -8.5390 C.3    88  GLU88       0.1567
     77  C         -7.1700  -20.8730   -9.7300 C.2    88  GLU88       0.2260
     78  O         -7.4740  -22.0790   -9.6110 O.2    88  GLU88      -0.2867
     79  CB        -6.3310  -20.3140   -7.4170 C.3    88  GLU88       0.0388
     80  CG        -4.8150  -20.1990   -7.7530 C.3    88  GLU88       0.1160
     81  CD        -3.9360  -20.6150   -6.5570 C.2    88  GLU88       0.3649
     82  OE1       -4.3170  -21.5900   -5.8540 O.co2  88  GLU88      -0.2457
     83  OE2       -2.8700  -19.9930   -6.3280 O.co2  88  GLU88      -0.2457
     84  N         -3.5320  -19.5730    1.6240 N.3   129  PRO129     -0.2102
     85  CA        -3.3950  -18.1730    1.2110 C.3   129  PRO129      0.1504
     86  C         -4.1570  -17.9150   -0.0980 C.2   129  PRO129      0.2576
     87  O         -4.2700  -18.8070   -0.9550 O.2   129  PRO129     -0.2718
     88  CB        -1.8720  -18.0050    0.9860 C.3   129  PRO129      0.0282
     89  CG        -1.2400  -19.1170    1.8090 C.3   129  PRO129      0.0208
     90  CD        -2.2220  -20.2580    1.7050 C.3   129  PRO129      0.0893
     91  N         -4.6760  -16.7050   -0.2500 N.am  130  SER130     -0.1938
     92  CA        -5.4080  -16.3250   -1.4640 C.3   130  SER130      0.2055
     93  C         -5.3780  -14.8120   -1.6270 C.2   130  SER130      0.2642
     94  O         -4.9510  -14.1070   -0.7100 O.2   130  SER130     -0.2714
     95  CB        -6.8670  -16.8180   -1.4120 C.3   130  SER130      0.2130
     96  OG        -7.7010  -15.8850   -0.7370 O.3   130  SER130     -0.2179
     97  N         -5.8700  -14.3260   -2.7660 N.am  131  ILE131     -0.1977
     98  CA        -5.9680  -12.8840   -3.0090 C.3   131  ILE131      0.1596
     99  C         -6.9300  -12.1660   -2.0290 C.2   131  ILE131      0.2287
    100  O         -6.9440  -10.9310   -1.9720 O.2   131  ILE131     -0.2864
    101  CB        -6.3360  -12.5460   -4.4880 C.3   131  ILE131      0.0276
    102  CG1       -7.6620  -13.2170   -4.9090 C.3   131  ILE131      0.0022
    103  CG2       -5.1720  -12.9480   -5.4150 C.3   131  ILE131      0.0022
    104  CD1       -8.3280  -12.5980   -6.1450 C.3   131  ILE131      0.0001
    105  N         -7.0820  -13.3040    1.3530 N.3   133  GLY133     -0.1225
    106  CA        -6.6550  -13.8460    2.6510 C.3   133  GLY133      0.1811
    107  C         -6.9520  -15.3320    2.7620 C.2   133  GLY133      0.2280
    108  O         -7.4660  -15.9470    1.8270 O.2   133  GLY133     -0.2866
    109  N         -6.5450  -10.7500  -11.3730 N.3   174  TYR174     -0.1241
    110  CA        -5.3520  -10.7250  -12.2560 C.3   174  TYR174      0.1605
    111  C         -5.1150  -12.0060  -13.0750 C.2   174  TYR174      0.2264
    112  O         -5.6440  -13.0760  -12.7500 O.2   174  TYR174     -0.2867
    113  CB        -4.0900  -10.2810  -11.5030 C.3   174  TYR174      0.0534
    114  CG        -3.5170  -11.2490  -10.4870 C.ar  174  TYR174     -0.0201
    115  CD1       -2.8190  -12.4090  -10.9010 C.ar  174  TYR174     -0.0009
    116  CD2       -3.6010  -10.9780   -9.1090 C.ar  174  TYR174     -0.0009
    117  CE1       -2.2490  -13.2780   -9.9740 C.ar  174  TYR174      0.0417
    118  CE2       -3.0390  -11.8650   -8.1520 C.ar  174  TYR174      0.0417
    119  CZ        -2.3650  -13.0160   -8.5940 C.ar  174  TYR174      0.1957
    120  OH        -1.7770  -13.9000   -7.6870 O.3   174  TYR174     -0.2866
@<TRIPOS>BOND
     1    49    50    1
     2    52    51    2
     3    50    51    1
     4    50    53    1
     5   111   112    2
     6   111   110    1
     7    53    54    1
     8   110   113    1
     9   110   109    1
    10   113   114    1
    11    54    56   ar
    12    54    55   ar
    13    64    63    2
    14    61    62    1
    15   115   114   ar
    16   115   117   ar
    17    56    58   ar
    18    55    57   ar
    19   114   116   ar
    20    14    15    1
    21    63    62    1
    22    62    65    1
    23   117   119   ar
    24    77    78    2
    25    77    76    1
    26    17    16    2
    27    58    59   ar
    28    57    59   ar
    29    15    18    1
    30    15    16    1
    31    48    46    1
    32   116   118   ar
    33    18    19    1
    34    65    66    1
    35   119   118   ar
    36   119   120    1
    37    59    60    1
    38    76    75    1
    39    76    79    1
    40    67    66   ar
    41    67    69   ar
    42    66    68   ar
    43    44    43    1
    44    44    45    2
    45    80    79    1
    46    80    81    1
    47    46    43    1
    48    46    47    1
    49     9     8    1
    50     9    10    2
    51    43    42    1
    52    69    70   ar
    53     8    11    1
    54     8     7    1
    55    11    13    1
    56    11    12    1
    57    68    70   ar
    58    68    71   ar
    59    81    83   ar
    60    81    82   ar
    61    70    72   ar
    62   104   102    1
    63    71    73   ar
    64   103   101    1
    65    72    74   ar
    66    20    21    1
    67    73    74   ar
    68   102   101    1
    69   101    98    1
    70    23    22    2
    71    40    39    2
    72    21    24    1
    73    21    22    1
    74    24    25    1
    75    98    97    1
    76    98    99    1
    77    97    93   am
    78    39    41   am
    79    39    38    1
    80    30    27   ar
    81    30    32   ar
    82     3     2    1
    83     3     4    2
    84    25    27   ar
    85    25    26   ar
    86    36    35    1
    87    36    37    2
    88    99   100    2
    89     2     1    1
    90     2     5    1
    91    27    29   ar
    92    35    38    1
    93    35    34    1
    94    32    33   ar
    95    93    92    1
    96    93    94    2
    97    92    95    1
    98    92    91    1
    99    95    96    1
   100    26    28   ar
   101     5     6    1
   102    87    86    2
   103    29    28   ar
   104    29    31   ar
   105    33    31   ar
   106    91    86   am
   107    86    85    1
   108    88    85    1
   109    88    89    1
   110    85    84    1
   111   105   106    1
   112    84    90    1
   113    90    89    1
   114   108   107    2
   115   106   107    1
