@<TRIPOS>MOLECULE
tmp/2vgdA01.pdb
 113 110 0 0 0
SMALL
GASTEIGER

@<TRIPOS>ATOM
      1  N          5.4770  -16.8540    0.6310 N.3    23  ASP23      -0.1239
      2  CA         5.3810  -16.9370    2.0950 C.3    23  ASP23       0.1674
      3  C          6.8120  -16.7400    2.6740 C.2    23  ASP23       0.2266
      4  O          7.7590  -16.5200    1.9080 O.2    23  ASP23      -0.2867
      5  CB         4.6240  -18.2070    2.5660 C.3    23  ASP23       0.1410
      6  CG         5.2280  -19.5230    2.0540 C.2    23  ASP23       0.3668
      7  OD1        6.3600  -19.5600    1.4980 O.co2  23  ASP23      -0.2456
      8  OD2        4.5360  -20.5600    2.2110 O.co2  23  ASP23      -0.2456
      9  N          9.3240  -21.8900    0.5890 N.3    46  ASN46      -0.1225
     10  CA         8.2500  -22.8480    0.7900 C.3    46  ASN46       0.1785
     11  C          7.2960  -22.7920   -0.4190 C.2    46  ASN46       0.2597
     12  O          7.1710  -23.7700   -1.1730 O.2    46  ASN46      -0.2718
     13  CB         7.5190  -22.6400    2.1290 C.3    46  ASN46       0.1169
     14  CG         6.4900  -23.7330    2.3900 C.2    46  ASN46       0.2627
     15  OD1        6.8450  -24.9140    2.5480 O.2    46  ASN46      -0.2716
     16  ND2        5.2050  -23.3640    2.3590 N.am   46  ASN46      -0.0877
     17  N          6.6690  -21.6380   -0.6270 N.am   47  ASN47      -0.1974
     18  CA         5.8210  -21.4510   -1.8140 C.3    47  ASN47       0.1688
     19  C          5.8960  -20.0180   -2.3060 C.2    47  ASN47       0.2292
     20  O          5.8830  -19.0800   -1.5110 O.2    47  ASN47      -0.2864
     21  CB         4.3710  -21.8280   -1.4890 C.3    47  ASN47       0.1181
     22  CG         3.4800  -21.9510   -2.7330 C.2    47  ASN47       0.2629
     23  OD1        3.9100  -22.3590   -3.8350 O.2    47  ASN47      -0.2716
     24  ND2        2.2200  -21.6310   -2.5480 N.am   47  ASN47      -0.0877
     25  N          7.8460  -32.6080  -10.5470 N.3    98  TRP98      -0.1241
     26  CA         6.5540  -33.1260  -10.1180 C.3    98  TRP98       0.1605
     27  C          5.4280  -32.5470  -10.9920 C.2    98  TRP98       0.2264
     28  O          5.2460  -31.3250  -11.0490 O.2    98  TRP98      -0.2867
     29  CB         6.3540  -32.7430   -8.6470 C.3    98  TRP98       0.0550
     30  CG         5.1760  -33.3680   -7.9590 C.ar   98  TRP98       0.0003
     31  CD1        5.0940  -34.6430   -7.4640 C.ar   98  TRP98       0.0946
     32  CD2        3.9160  -32.7370   -7.6590 C.ar   98  TRP98       0.0152
     33  NE1        3.8590  -34.8490   -6.8860 N.ar   98  TRP98      -0.2442
     34  CE2        3.1170  -33.6990   -6.9930 C.ar   98  TRP98       0.0810
     35  CE3        3.3860  -31.4570   -7.8910 C.ar   98  TRP98       0.0012
     36  CZ2        1.8150  -33.4190   -6.5520 C.ar   98  TRP98       0.0191
     37  CZ3        2.0890  -31.1810   -7.4610 C.ar   98  TRP98       0.0001
     38  CH2        1.3230  -32.1560   -6.7900 C.ar   98  TRP98       0.0015
     39  N         -4.6260  -34.7100   -5.1420 N.3   104  ASP104     -0.1239
     40  CA        -5.6760  -33.7840   -4.7270 C.3   104  ASP104      0.1674
     41  C         -6.4000  -33.1650   -5.9480 C.2   104  ASP104      0.2266
     42  O         -7.3270  -32.4520   -5.7960 O.2   104  ASP104     -0.2867
     43  CB        -5.0900  -32.6960   -3.8390 C.3   104  ASP104      0.1410
     44  CG        -3.8680  -32.0820   -4.4550 C.2   104  ASP104      0.3668
     45  OD1       -2.7480  -32.6130   -4.2140 O.co2 104  ASP104     -0.2456
     46  OD2       -4.0420  -31.1130   -5.2350 O.co2 104  ASP104     -0.2456
     47  N         -9.0210  -28.7780   -4.3630 N.3   124  GLN124     -0.1231
     48  CA        -9.5160  -27.8480   -3.3480 C.3   124  GLN124      0.1698
     49  C         -8.3810  -27.4540   -2.4180 C.2   124  GLN124      0.2592
     50  O         -7.6200  -28.3200   -1.9410 O.2   124  GLN124     -0.2718
     51  CB       -10.7140  -28.4370   -2.5620 C.3   124  GLN124      0.0381
     52  CG       -11.3410  -27.4700   -1.5480 C.3   124  GLN124      0.0905
     53  CD       -12.4720  -28.1010   -0.7320 C.2   124  GLN124      0.2608
     54  OE1      -12.3180  -29.1970   -0.1740 O.2   124  GLN124     -0.2717
     55  NE2      -13.5960  -27.4060   -0.6500 N.am  124  GLN124     -0.0878
     56  N         -8.2660  -26.1470   -2.1720 N.am  125  ARG125     -0.1966
     57  CA        -7.3000  -25.6120   -1.2330 C.3   125  ARG125      0.1729
     58  C         -8.0530  -25.3060    0.0640 C.2   125  ARG125      0.2616
     59  O         -9.1090  -24.6880    0.0220 O.2   125  ARG125     -0.2715
     60  CB        -6.6330  -24.3610   -1.8120 C.3   125  ARG125      0.0348
     61  CG        -5.8450  -24.6590   -3.1240 C.3   125  ARG125      0.0492
     62  CD        -4.5240  -25.3830   -2.8370 C.3   125  ARG125      0.2205
     63  NE        -3.6010  -24.4480   -2.2010 N.pl3 125  ARG125     -0.0865
     64  CZ        -2.6380  -24.7760   -1.3460 C.cat 125  ARG125      0.5346
     65  NH1       -2.4220  -26.0550   -1.0300 N.pl3 125  ARG125      0.1354
     66  NH2       -1.8720  -23.8200   -0.8240 N.pl3 125  ARG125      0.1354
     67  N         -7.5340  -25.8040    1.1880 N.am  126  VAL126     -0.1963
     68  CA        -8.2370  -25.6850    2.4800 C.3   126  VAL126      0.1727
     69  C         -7.4750  -24.7410    3.4070 C.2   126  VAL126      0.2616
     70  O         -6.3020  -24.9900    3.7450 O.2   126  VAL126     -0.2715
     71  CB        -8.4530  -27.0810    3.1750 C.3   126  VAL126      0.0290
     72  CG1       -9.1350  -26.9070    4.5200 C.3   126  VAL126      0.0023
     73  CG2       -9.2710  -28.0110    2.2820 C.3   126  VAL126      0.0023
     74  N         -8.1540  -23.6730    3.8180 N.am  127  ASN127     -0.1958
     75  CA        -7.5370  -22.6450    4.6640 C.3   127  ASN127      0.1819
     76  C         -6.1690  -22.2610    4.1260 C.2   127  ASN127      0.2621
     77  O         -5.1750  -22.3540    4.8400 O.2   127  ASN127     -0.2715
     78  CB        -7.3650  -23.1600    6.0940 C.3   127  ASN127      0.1195
     79  CG        -8.6540  -23.2600    6.8190 C.2   127  ASN127      0.2630
     80  OD1       -9.5620  -22.4490    6.6120 O.2   127  ASN127     -0.2716
     81  ND2       -8.7630  -24.2600    7.6840 N.am  127  ASN127     -0.0877
     82  N         -6.1270  -21.8570    2.8610 N.am  128  ALA128     -0.1964
     83  CA        -4.8780  -21.5840    2.1490 C.3   128  ALA128      0.1713
     84  C         -4.7700  -20.0840    1.8350 C.2   128  ALA128      0.2458
     85  O         -5.7940  -19.4050    1.7250 O.2   128  ALA128     -0.2730
     86  CB        -4.8420  -22.3970    0.8350 C.3   128  ALA128      0.0333
     87  N         -3.5320  -19.5730    1.6240 N.am  129  PRO129     -0.2727
     88  CA        -3.3950  -18.1730    1.2110 C.3   129  PRO129      0.1402
     89  C         -4.1570  -17.9150   -0.0980 C.2   129  PRO129      0.2269
     90  O         -4.2700  -18.8070   -0.9550 O.2   129  PRO129     -0.2865
     91  CB        -1.8720  -18.0050    0.9860 C.3   129  PRO129      0.0296
     92  CG        -1.2400  -19.1170    1.8090 C.3   129  PRO129      0.0237
     93  CD        -2.2220  -20.2580    1.7050 C.3   129  PRO129      0.0939
     94  N         -6.6110  -15.9230    3.8990 N.3   134  ASN134     -0.1240
     95  CA        -6.8150  -17.3510    4.0800 C.3   134  ASN134      0.1653
     96  C         -8.2440  -17.7320    3.7330 C.2   134  ASN134      0.2266
     97  O         -9.2040  -17.0640    4.1640 O.2   134  ASN134     -0.2867
     98  CB        -6.5350  -17.7430    5.5180 C.3   134  ASN134      0.1155
     99  CG        -5.0620  -17.7160    5.8490 C.2   134  ASN134      0.2627
    100  OD1       -4.6690  -17.1680    6.8750 O.2   134  ASN134     -0.2716
    101  ND2       -4.2400  -18.3060    4.9870 N.am  134  ASN134     -0.0877
    102  N          7.7220  -24.6620   -5.3150 N.3   182  TYR182     -0.1241
    103  CA         7.3160  -25.3080   -4.0610 C.3   182  TYR182      0.1605
    104  C          8.4650  -26.1100   -3.4420 C.2   182  TYR182      0.2264
    105  O          8.9180  -27.1100   -4.0210 O.2   182  TYR182     -0.2867
    106  CB         6.0940  -26.2210   -4.2420 C.3   182  TYR182      0.0534
    107  CG         5.5560  -26.7550   -2.9120 C.ar  182  TYR182     -0.0201
    108  CD1        4.7740  -25.9420   -2.0790 C.ar  182  TYR182     -0.0009
    109  CD2        5.8280  -28.0700   -2.4910 C.ar  182  TYR182     -0.0009
    110  CE1        4.2810  -26.4060   -0.8570 C.ar  182  TYR182      0.0417
    111  CE2        5.3320  -28.5470   -1.2540 C.ar  182  TYR182      0.0417
    112  CZ         4.5590  -27.7040   -0.4540 C.ar  182  TYR182      0.1957
    113  OH         4.0460  -28.1430    0.7600 O.3   182  TYR182     -0.2866
@<TRIPOS>BOND
     1    28    27    2
     2    27    26    1
     3    25    26    1
     4    26    29    1
     5    29    30    1
     6    30    32   ar
     7    30    31   ar
     8    35    32   ar
     9    35    37   ar
    10    32    34   ar
    11    31    33   ar
    12    37    38   ar
    13    34    33   ar
    14    34    36   ar
    15    38    36   ar
    16    41    42    2
    17    41    40    1
    18   102   103    1
    19    46    44   ar
    20    39    40    1
    21    40    43    1
    22    44    45   ar
    23    44    43    1
    24    47    48    1
    25   106   103    1
    26   106   107    1
    27   103   104    1
    28   105   104    2
    29    23    22    2
    30    48    51    1
    31    48    49    1
    32    61    62    1
    33    61    60    1
    34   107   109   ar
    35   107   108   ar
    36    62    63    1
    37    22    24   am
    38    22    21    1
    39    51    52    1
    40   109   111   ar
    41    49    56   am
    42    49    50    2
    43    19    18    1
    44    19    20    2
    45    63    64    2
    46    56    57    1
    47   108   110   ar
    48    18    21    1
    49    18    17    1
    50    60    57    1
    51    52    53    1
    52    64    65    1
    53    64    66    1
    54   111   112   ar
    55    57    58    1
    56    12    11    2
    57    90    89    2
    58   110   112   ar
    59    53    55   am
    60    53    54    2
    61    17    11   am
    62   112   113    1
    63    11    10    1
    64    89    88    1
    65    59    58    2
    66    58    67   am
    67     9    10    1
    68     1     2    1
    69    10    13    1
    70    86    83    1
    71    91    88    1
    72    91    92    1
    73    67    68    1
    74    88    87    1
    75     7     6   ar
    76    87    93    1
    77    87    84   am
    78    93    92    1
    79    85    84    2
    80    84    83    1
    81     4     3    2
    82     6     8   ar
    83     6     5    1
    84     2     5    1
    85     2     3    1
    86    13    14    1
    87    83    82    1
    88    73    71    1
    89    16    14   am
    90    14    15    2
    91    68    71    1
    92    68    69    1
    93    82    76   am
    94    71    72    1
    95    69    70    2
    96    69    74   am
    97    96    95    1
    98    96    97    2
    99    74    75    1
   100    94    95    1
   101    95    98    1
   102    76    75    1
   103    76    77    2
   104    75    78    1
   105   101    99   am
   106    98    99    1
   107    99   100    2
   108    78    79    1
   109    80    79    2
   110    79    81   am
