@<TRIPOS>MOLECULE
tmp/2vggD01.pdb
 100 91 0 0 0
SMALL
GASTEIGER

@<TRIPOS>ATOM
      1  N        -16.8270    2.4110  -16.5860 N.3    51  ARG51      -0.1245
      2  CA       -15.7680    1.8620  -17.3900 C.3    51  ARG51       0.1563
      3  C        -16.2400    1.4350  -18.8010 C.2    51  ARG51       0.2260
      4  O        -17.1510    0.6140  -18.9560 O.2    51  ARG51      -0.2867
      5  CB       -15.2100    0.6740  -16.6680 C.3    51  ARG51       0.0307
      6  CG       -13.9870    0.1100  -17.2960 C.3    51  ARG51       0.0489
      7  CD       -13.6260   -1.1150  -16.5510 C.3    51  ARG51       0.2205
      8  NE       -12.6150   -1.8920  -17.2140 N.pl3  51  ARG51      -0.0865
      9  CZ       -12.7920   -3.1450  -17.5680 C.cat  51  ARG51       0.5346
     10  NH1      -13.9590   -3.7170  -17.3130 N.pl3  51  ARG51       0.1354
     11  NH2      -11.8240   -3.8070  -18.1870 N.pl3  51  ARG51       0.1354
     12  N         -4.0400   -7.8150  -26.5190 N.3    96  GLU96      -0.1245
     13  CA        -4.7670   -9.0190  -26.2030 C.3    96  GLU96       0.1567
     14  C         -4.4510   -9.9650  -27.3210 C.2    96  GLU96       0.2260
     15  O         -3.9490   -9.5680  -28.3730 O.2    96  GLU96      -0.2867
     16  CB        -6.2690   -8.8170  -26.2070 C.3    96  GLU96       0.0388
     17  CG        -6.7750   -7.5670  -25.6140 C.3    96  GLU96       0.1160
     18  CD        -8.2720   -7.6280  -25.4690 C.2    96  GLU96       0.3649
     19  OE1       -8.9900   -7.6730  -26.4910 O.co2  96  GLU96      -0.2457
     20  OE2       -8.7360   -7.6520  -24.3220 O.co2  96  GLU96      -0.2457
     21  N         -4.2740   -1.0390  -20.2730 N.3   214  SER214     -0.1202
     22  CA        -4.0180   -2.4760  -20.1190 C.3   214  SER214      0.2020
     23  C         -2.5660   -2.8360  -20.3040 C.2   214  SER214      0.2618
     24  O         -1.7530   -2.0600  -20.8080 O.2   214  SER214     -0.2717
     25  CB        -4.8470   -3.3270  -21.0860 C.3   214  SER214      0.2103
     26  OG        -6.2230   -3.1780  -20.8300 O.3   214  SER214     -0.2182
     27  N         -2.2840   -4.0560  -19.8840 N.am  215  PHE215     -0.1975
     28  CA        -0.9910   -4.7220  -19.9900 C.3   215  PHE215      0.1639
     29  C          0.2920   -3.8870  -19.8370 C.2   215  PHE215      0.2290
     30  O          1.2920   -4.1580  -20.4980 O.2   215  PHE215     -0.2864
     31  CB        -0.9590   -5.5980  -21.2450 C.3   215  PHE215      0.0560
     32  CG        -1.9470   -6.7140  -21.2060 C.ar  215  PHE215     -0.0200
     33  CD1       -3.1910   -6.5810  -21.8010 C.ar  215  PHE215     -0.0042
     34  CD2       -1.6460   -7.8900  -20.5710 C.ar  215  PHE215     -0.0042
     35  CE1       -4.1080   -7.6110  -21.7760 C.ar  215  PHE215     -0.0003
     36  CE2       -2.5710   -8.9260  -20.5440 C.ar  215  PHE215     -0.0003
     37  CZ        -3.8010   -8.7800  -21.1560 C.ar  215  PHE215     -0.0000
     38  N         -2.4940   -0.8520  -15.5250 N.3   241  LYS241     -0.1245
     39  CA        -3.0420   -2.1420  -15.1670 C.3   241  LYS241      0.1561
     40  C         -1.9140   -3.1500  -15.0950 C.2   241  LYS241      0.2260
     41  O         -1.0510   -3.1960  -15.9670 O.2   241  LYS241     -0.2867
     42  CB        -4.0420   -2.5830  -16.2020 C.3   241  LYS241      0.0271
     43  CG        -5.2610   -1.7410  -16.2830 C.3   241  LYS241      0.0035
     44  CD        -6.5070   -2.5650  -16.5260 C.3   241  LYS241      0.0206
     45  CE        -6.4360   -3.6000  -17.6850 C.3   241  LYS241      0.1093
     46  NZ        -7.6750   -3.4770  -18.5870 N.3   241  LYS241     -0.1314
     47  N         -0.8560   -6.9780  -14.9220 N.3   243  GLU243     -0.1245
     48  CA        -1.5380   -8.1490  -15.4050 C.3   243  GLU243      0.1567
     49  C         -0.5950   -9.2520  -15.7580 C.2   243  GLU243      0.2260
     50  O         -1.0240  -10.3060  -16.3170 O.2   243  GLU243     -0.2867
     51  CB        -2.2700   -7.8340  -16.7010 C.3   243  GLU243      0.0388
     52  CG        -3.3240   -6.7840  -16.6050 C.3   243  GLU243      0.1160
     53  CD        -4.1340   -6.7320  -17.8390 C.2   243  GLU243      0.3649
     54  OE1       -3.9090   -5.7800  -18.6360 O.co2 243  GLU243     -0.2457
     55  OE2       -4.9800   -7.6720  -18.0000 O.co2 243  GLU243     -0.2457
     56  N         -4.1800   -0.4700  -11.1660 N.3   262  MET262     -0.1245
     57  CA        -5.2530   -1.4060  -11.0670 C.3   262  MET262      0.1570
     58  C         -4.6500   -2.8010  -10.9470 C.2   262  MET262      0.2261
     59  O         -3.7600   -3.1600  -11.6890 O.2   262  MET262     -0.2867
     60  CB        -6.1030   -1.3340  -12.3100 C.3   262  MET262      0.0387
     61  CG        -7.1360   -2.4290  -12.3500 C.3   262  MET262      0.0595
     62  SD        -8.2100   -2.5450  -13.7810 S.3   262  MET262     -0.1393
     63  CE        -8.7030   -0.8590  -14.0230 C.3   262  MET262      0.0692
     64  N         -5.0090   -6.0720  -11.9680 N.3   264  ALA264     -0.1245
     65  CA        -5.9210   -6.7170  -12.9060 C.3   264  ALA264      0.1562
     66  C         -5.9300   -8.1760  -12.6640 C.2   264  ALA264      0.2260
     67  O         -5.1850   -8.9070  -13.3120 O.2   264  ALA264     -0.2867
     68  CB        -5.5190   -6.4140  -14.3130 C.3   264  ALA264      0.0290
     69  N         -7.6660  -10.6940  -13.2750 N.3   266  GLY266     -0.1210
     70  CA        -8.0870  -11.6190  -14.3310 C.3   266  GLY266      0.1956
     71  C         -6.8440  -12.1400  -15.0150 C.2   266  GLY266      0.2611
     72  O         -6.4150  -13.2730  -14.7520 O.2   266  GLY266     -0.2717
     73  N         -6.2400  -11.3270  -15.8810 N.am  267  ASP267     -0.1973
     74  CA        -5.0250  -11.7740  -16.5670 C.3   267  ASP267      0.1709
     75  C         -3.9650  -12.1670  -15.5470 C.2   267  ASP267      0.2293
     76  O         -3.4610  -13.2870  -15.5570 O.2   267  ASP267     -0.2864
     77  CB        -4.4660  -10.7200  -17.5090 C.3   267  ASP267      0.1436
     78  CG        -5.3530  -10.5060  -18.7520 C.2   267  ASP267      0.3671
     79  OD1       -5.2760  -11.3650  -19.6580 O.co2 267  ASP267     -0.2456
     80  OD2       -6.0590   -9.4360  -18.8660 O.co2 267  ASP267     -0.2456
     81  N         -9.7090   -5.3880   -8.9420 N.3   298  ALA298     -0.1231
     82  CA       -10.5570   -5.6840  -10.0650 C.3   298  ALA298      0.1694
     83  C        -10.7590   -7.1450  -10.4070 C.2   298  ALA298      0.2592
     84  O         -9.9080   -7.9780  -10.0980 O.2   298  ALA298     -0.2718
     85  CB        -9.9740   -5.0100  -11.2760 C.3   298  ALA298      0.0304
     86  N        -11.8790   -7.4410  -11.0680 N.am  299  THR299     -0.1953
     87  CA       -12.1300   -8.7260  -11.6870 C.3   299  THR299      0.1897
     88  C        -12.6210   -9.7910  -10.7420 C.2   299  THR299      0.2313
     89  O        -12.0260  -10.0710   -9.6890 O.2   299  THR299     -0.2863
     90  CB       -10.9500   -9.2120  -12.5120 C.3   299  THR299      0.1794
     91  OG1      -10.4350   -8.1110  -13.2600 O.3   299  THR299     -0.2208
     92  CG2      -11.3880  -10.2010  -13.5110 C.3   299  THR299      0.0378
     93  N        -14.1060   -2.8480   -8.4130 N.3   331  MET331     -0.1245
     94  CA       -14.6390   -2.8850   -9.7730 C.3   331  MET331      0.1570
     95  C        -15.6520   -3.9720   -9.9980 C.2   331  MET331      0.2261
     96  O        -15.7330   -4.9370   -9.2570 O.2   331  MET331     -0.2867
     97  CB       -13.5390   -3.0260  -10.8200 C.3   331  MET331      0.0387
     98  CG       -13.8910   -2.3670  -12.1340 C.3   331  MET331      0.0595
     99  SD       -12.4270   -2.2220  -13.1100 S.3   331  MET331     -0.1393
    100  CE       -12.4470   -3.7070  -14.1390 C.3   331  MET331      0.0692
@<TRIPOS>BOND
     1    15    14    2
     2    14    13    1
     3    12    13    1
     4    19    18   ar
     5    16    13    1
     6    16    17    1
     7    17    18    1
     8    18    20   ar
     9    33    35   ar
    10    33    32   ar
    11    35    37   ar
    12    31    32    1
    13    31    28    1
    14    32    34   ar
    15    37    36   ar
    16    25    26    1
    17    25    22    1
    18    24    23    2
    19    34    36   ar
    20    30    29    2
    21    23    22    1
    22    23    27   am
    23    21    22    1
    24    28    27    1
    25    28    29    1
    26    79    78   ar
    27     4     3    2
    28    80    78   ar
    29     3     2    1
    30    78    77    1
    31    54    53   ar
    32    46    45    1
    33    11     9    1
    34    55    53   ar
    35    53    52    1
    36    45    44    1
    37     9    10    1
    38     9     8    2
    39    77    74    1
    40     2     5    1
    41     2     1    1
    42     6     5    1
    43     6     7    1
    44     8     7    1
    45    51    52    1
    46    51    48    1
    47    74    73    1
    48    74    75    1
    49    44    43    1
    50    50    49    2
    51    43    42    1
    52    42    39    1
    53    41    40    2
    54    73    71   am
    55    49    48    1
    56    76    75    2
    57    38    39    1
    58    48    47    1
    59    39    40    1
    60    71    72    2
    61    71    70    1
    62    70    69    1
    63    68    65    1
    64   100    99    1
    65    63    62    1
    66    62    61    1
    67    92    90    1
    68    67    66    2
    69    91    90    1
    70    99    98    1
    71    65    66    1
    72    65    64    1
    73    90    87    1
    74    61    60    1
    75    60    57    1
    76    98    97    1
    77    59    58    2
    78    87    86    1
    79    87    88    1
    80    85    82    1
    81    56    57    1
    82    86    83   am
    83    57    58    1
    84    97    94    1
    85    88    89    2
    86    83    84    2
    87    83    82    1
    88    82    81    1
    89    95    94    1
    90    95    96    2
    91    94    93    1
