@<TRIPOS>MOLECULE
tmp/2vggB01.pdb
 108 98 0 0 0
SMALL
GASTEIGER

@<TRIPOS>ATOM
      1  N        -14.8130  -35.1930    6.3030 N.3    57  ARG57      -0.1245
      2  CA       -16.0790  -34.7860    6.8810 C.3    57  ARG57       0.1563
      3  C        -17.2100  -35.6460    6.3450 C.2    57  ARG57       0.2260
      4  O        -17.3560  -35.8290    5.1340 O.2    57  ARG57      -0.2867
      5  CB       -16.3260  -33.3480    6.5190 C.3    57  ARG57       0.0307
      6  CG       -17.4660  -32.7300    7.2970 C.3    57  ARG57       0.0489
      7  CD       -17.6330  -31.3270    6.7560 C.3    57  ARG57       0.2205
      8  NE       -18.9360  -30.8010    7.1300 N.pl3  57  ARG57      -0.0865
      9  CZ       -19.8210  -30.3860    6.2300 C.cat  57  ARG57       0.5346
     10  NH1      -19.5390  -30.4960    4.9410 N.pl3  57  ARG57       0.1354
     11  NH2      -20.9860  -29.8770    6.6000 N.pl3  57  ARG57       0.1354
     12  N        -21.0720  -35.6460    6.0740 N.3    59  ASN59      -0.1240
     13  CA       -22.1520  -34.7120    6.3100 C.3    59  ASN59       0.1653
     14  C        -23.4760  -35.3810    6.5980 C.2    59  ASN59       0.2266
     15  O        -24.2110  -35.7350    5.6730 O.2    59  ASN59      -0.2867
     16  CB       -22.3190  -33.7550    5.1420 C.3    59  ASN59       0.1155
     17  CG       -23.4940  -32.8270    5.3390 C.2    59  ASN59       0.2627
     18  OD1      -24.2040  -32.9330    6.3440 O.2    59  ASN59      -0.2716
     19  ND2      -23.7110  -31.9160    4.3900 N.am   59  ASN59      -0.0877
     20  N        -32.3930  -28.5820   10.7670 N.3   102  GLU102     -0.1245
     21  CA       -32.5740  -28.0350    9.4210 C.3   102  GLU102      0.1567
     22  C        -34.0480  -27.9440    9.0590 C.2   102  GLU102      0.2260
     23  O        -34.8940  -28.5580    9.7100 O.2   102  GLU102     -0.2867
     24  CB       -31.8940  -28.8960    8.3620 C.3   102  GLU102      0.0388
     25  CG       -30.2460  -28.8550    8.4390 C.3   102  GLU102      0.1160
     26  CD       -29.8480  -29.8520    7.2880 C.2   102  GLU102      0.3649
     27  OE1      -30.6880  -30.7510    6.9080 O.co2 102  GLU102     -0.2457
     28  OE2      -28.7050  -29.7410    6.7500 O.co2 102  GLU102     -0.2457
     29  N        -23.7950  -28.9870   14.3890 N.3   196  SER196     -0.1202
     30  CA       -24.5250  -27.9110   13.7000 C.3   196  SER196      0.2020
     31  C        -25.3490  -27.0570   14.6370 C.2   196  SER196      0.2618
     32  O        -25.5550  -27.3900   15.8130 O.2   196  SER196     -0.2717
     33  CB       -25.4290  -28.4440   12.5860 C.3   196  SER196      0.2103
     34  OG       -24.6700  -29.1180   11.5970 O.3   196  SER196     -0.2182
     35  N        -25.7910  -25.9390   14.0740 N.am  197  PHE197     -0.1975
     36  CA       -26.6450  -24.9370   14.7180 C.3   197  PHE197      0.1639
     37  C        -26.5100  -24.6250   16.2310 C.2   197  PHE197      0.2290
     38  O        -27.5010  -24.2730   16.8780 O.2   197  PHE197     -0.2864
     39  CB       -28.0970  -25.1690   14.2900 C.3   197  PHE197      0.0560
     40  CG       -28.3030  -24.9900   12.8090 C.ar  197  PHE197     -0.0200
     41  CD1      -28.2100  -26.0800   11.9400 C.ar  197  PHE197     -0.0042
     42  CD2      -28.5420  -23.7270   12.2750 C.ar  197  PHE197     -0.0042
     43  CE1      -28.3780  -25.9180   10.5610 C.ar  197  PHE197     -0.0003
     44  CE2      -28.7210  -23.5520   10.8970 C.ar  197  PHE197     -0.0003
     45  CZ       -28.6360  -24.6530   10.0400 C.ar  197  PHE197     -0.0000
     46  N        -20.5640  -25.2610   15.6030 N.3   223  LYS223     -0.1245
     47  CA       -20.8290  -24.5220   14.3520 C.3   223  LYS223      0.1561
     48  C        -21.6390  -23.2770   14.6270 C.2   223  LYS223      0.2260
     49  O        -22.6800  -23.3460   15.2980 O.2   223  LYS223     -0.2867
     50  CB       -21.5750  -25.3780   13.3550 C.3   223  LYS223      0.0271
     51  CG       -20.7770  -26.5940   12.9210 C.3   223  LYS223      0.0035
     52  CD       -20.9190  -26.8660   11.4330 C.3   223  LYS223      0.0206
     53  CE       -22.3860  -27.0630   10.9890 C.3   223  LYS223      0.1093
     54  NZ       -22.5740  -28.2330   10.0320 N.3   223  LYS223     -0.1314
     55  N        -23.8530  -20.4200   13.1410 N.3   225  GLU225     -0.1245
     56  CA       -24.6260  -20.3570   11.9120 C.3   225  GLU225      0.1567
     57  C        -25.7860  -19.4280   11.9980 C.2   225  GLU225      0.2260
     58  O        -26.6280  -19.4220   11.0940 O.2   225  GLU225     -0.2867
     59  CB       -25.2110  -21.7210   11.5900 C.3   225  GLU225      0.0388
     60  CG       -24.2060  -22.7590   11.3540 C.3   225  GLU225      0.1160
     61  CD       -24.8220  -23.9870   10.8220 C.2   225  GLU225      0.3649
     62  OE1      -25.1280  -24.8800   11.6510 O.co2 225  GLU225     -0.2457
     63  OE2      -25.0140  -24.0470    9.5800 O.co2 225  GLU225     -0.2457
     64  N        -16.3960  -23.6680   14.3240 N.3   244  MET244     -0.1245
     65  CA       -16.5070  -23.5470   12.8660 C.3   244  MET244      0.1570
     66  C        -17.3490  -22.3200   12.4780 C.2   244  MET244      0.2261
     67  O        -18.4770  -22.1600   12.9490 O.2   244  MET244     -0.2867
     68  CB       -17.1470  -24.7930   12.2730 C.3   244  MET244      0.0387
     69  CG       -17.4400  -24.6460   10.7880 C.3   244  MET244      0.0595
     70  SD       -18.2010  -26.0500    9.9670 S.3   244  MET244     -0.1393
     71  CE       -17.2990  -27.4200   10.6790 C.3   244  MET244      0.0692
     72  N        -19.5740  -21.2440   10.2480 N.3   246  ALA246     -0.1245
     73  CA       -20.3820  -21.8730    9.1750 C.3   246  ALA246      0.1562
     74  C        -20.9630  -20.8090    8.2490 C.2   246  ALA246      0.2260
     75  O        -22.1150  -20.3890    8.4290 O.2   246  ALA246     -0.2867
     76  CB       -21.4800  -22.7010    9.7720 C.3   246  ALA246      0.0290
     77  N        -22.1660  -20.6160    5.3100 N.3   248  GLY248     -0.1210
     78  CA       -23.3330  -20.9030    4.5280 C.3   248  GLY248      0.1956
     79  C        -24.5110  -20.3340    5.2700 C.2   248  GLY248      0.2611
     80  O        -24.9270  -19.2120    4.9850 O.2   248  GLY248     -0.2717
     81  N        -25.0410  -21.0870    6.2330 N.am  249  ASP249     -0.1973
     82  CA       -26.2220  -20.6430    6.9870 C.3   249  ASP249      0.1709
     83  C        -25.9980  -19.2290    7.4960 C.2   249  ASP249      0.2293
     84  O        -26.7850  -18.3160    7.2310 O.2   249  ASP249     -0.2864
     85  CB       -26.5230  -21.5610    8.1720 C.3   249  ASP249      0.1436
     86  CG       -27.0810  -22.9210    7.7490 C.2   249  ASP249      0.3671
     87  OD1      -28.2860  -22.9490    7.4090 O.co2 249  ASP249     -0.2456
     88  OD2      -26.3530  -23.9640    7.8010 O.co2 249  ASP249     -0.2456
     89  N        -15.3210  -22.1420    6.8720 N.3   280  ALA280     -0.1231
     90  CA       -15.9870  -23.0980    5.9780 C.3   280  ALA280      0.1694
     91  C        -16.9880  -22.5030    4.9740 C.2   280  ALA280      0.2592
     92  O        -17.4740  -21.3870    5.1220 O.2   280  ALA280     -0.2718
     93  CB       -16.6730  -24.1380    6.8040 C.3   280  ALA280      0.0304
     94  N        -17.3040  -23.3060    3.9640 N.am  281  THR281     -0.1953
     95  CA       -18.3580  -23.0240    2.9980 C.3   281  THR281      0.1897
     96  C        -17.9900  -22.0820    1.8890 C.2   281  THR281      0.2313
     97  O        -17.5610  -20.9550    2.1030 O.2   281  THR281     -0.2863
     98  CB       -19.6720  -22.6380    3.6540 C.3   281  THR281      0.1794
     99  OG1      -19.8160  -23.4050    4.8490 O.3   281  THR281     -0.2208
    100  CG2      -20.8140  -23.0540    2.7480 C.3   281  THR281      0.0378
    101  N        -12.1530  -25.4600    5.0020 N.3   313  MET313     -0.1245
    102  CA       -13.0140  -26.5860    4.5480 C.3   313  MET313      0.1570
    103  C        -13.3270  -26.6150    3.0640 C.2   313  MET313      0.2261
    104  O        -13.1190  -25.6230    2.3510 O.2   313  MET313     -0.2867
    105  CB       -14.3420  -26.5990    5.3140 C.3   313  MET313      0.0387
    106  CG       -14.9120  -28.0120    5.5140 C.3   313  MET313      0.0595
    107  SD       -16.1780  -27.9290    6.8320 S.3   313  MET313     -0.1393
    108  CE       -17.6860  -27.9050    5.8920 C.3   313  MET313      0.0692
@<TRIPOS>BOND
     1    96    97    2
     2    96    95    1
     3   104   103    2
     4   100    98    1
     5    95    98    1
     6    95    94    1
     7   103   102    1
     8    98    99    1
     9    94    91   am
    10    19    17   am
    11    78    79    1
    12    78    77    1
    13   102   101    1
    14   102   105    1
    15    10     9    1
    16    91    92    2
    17    91    90    1
    18    80    79    2
    19     4     3    2
    20    16    17    1
    21    16    13    1
    22    79    81   am
    23   105   106    1
    24    17    18    2
    25   106   107    1
    26    15    14    2
    27   108   107    1
    28    90    93    1
    29    90    89    1
    30    12    13    1
    31     9    11    1
    32     9     8    2
    33    81    82    1
    34     1     2    1
    35    13    14    1
    36     3     2    1
    37     5     2    1
    38     5     6    1
    39    28    26   ar
    40     7     8    1
    41     7     6    1
    42    27    26   ar
    43    82    83    1
    44    82    85    1
    45    84    83    2
    46    26    25    1
    47    87    86   ar
    48    86    88   ar
    49    86    85    1
    50    74    75    2
    51    74    73    1
    52    24    25    1
    53    24    21    1
    54    22    21    1
    55    22    23    2
    56    73    76    1
    57    73    72    1
    58    21    20    1
    59    63    61   ar
    60    70    71    1
    61    70    69    1
    62    54    53    1
    63    45    43   ar
    64    45    44   ar
    65    43    41   ar
    66    69    68    1
    67    61    60    1
    68    61    62   ar
    69    44    42   ar
    70    53    52    1
    71    58    57    2
    72    60    59    1
    73    52    51    1
    74    59    56    1
    75    34    33    1
    76    56    57    1
    77    56    55    1
    78    41    40   ar
    79    68    65    1
    80    42    40   ar
    81    66    65    1
    82    66    67    2
    83    33    30    1
    84    40    39    1
    85    65    64    1
    86    51    50    1
    87    50    47    1
    88    30    29    1
    89    30    31    1
    90    35    31   am
    91    35    36    1
    92    39    36    1
    93    47    48    1
    94    47    46    1
    95    48    49    2
    96    31    32    2
    97    36    37    1
    98    37    38    2
