@<TRIPOS>MOLECULE
tmp/2vggB00.pdb
 157 154 0 0 0
SMALL
GASTEIGER

@<TRIPOS>ATOM
      1  N          6.9200  -34.5120   22.7240 N.3   384  LEU384     -0.1231
      2  CA         6.4070  -35.8370   23.0320 C.3   384  LEU384      0.1693
      3  C          5.1070  -35.6200   23.7660 C.2   384  LEU384      0.2593
      4  O          5.1080  -35.0220   24.8440 O.2   384  LEU384     -0.2718
      5  CB         7.3940  -36.5770   23.9220 C.3   384  LEU384      0.0284
      6  CG         8.4530  -37.4090   23.2020 C.3   384  LEU384      0.0019
      7  CD1        9.1990  -36.6170   22.1420 C.3   384  LEU384      0.0001
      8  CD2        9.4070  -38.0270   24.2130 C.3   384  LEU384      0.0001
      9  N          3.9980  -36.0780   23.1890 N.am  385  THR385     -0.1939
     10  CA         2.7140  -35.7860   23.8080 C.3   385  THR385      0.2028
     11  C          1.7960  -36.9640   23.8700 C.2   385  THR385      0.2643
     12  O          1.6350  -37.6900   22.8860 O.2   385  THR385     -0.2714
     13  CB         1.9610  -34.6450   23.1300 C.3   385  THR385      0.1808
     14  OG1        0.6260  -34.6280   23.6490 O.3   385  THR385     -0.2208
     15  CG2        1.8540  -34.8750   21.6540 C.3   385  THR385      0.0379
     16  N          1.1560  -37.1190   25.0230 N.am  386  THR386     -0.1936
     17  CA         0.2680  -38.2530   25.2660 C.3   386  THR386      0.2028
     18  C         -1.1640  -38.0350   24.7470 C.2   386  THR386      0.2642
     19  O         -1.7750  -38.9700   24.1940 O.2   386  THR386     -0.2714
     20  CB         0.2370  -38.6090   26.7720 C.3   386  THR386      0.1808
     21  OG1        1.5680  -38.9620   27.2010 O.3   386  THR386     -0.2208
     22  CG2       -0.7080  -39.7970   27.0370 C.3   386  THR386      0.0379
     23  N         -1.6950  -36.8240   24.9520 N.am  387  THR387     -0.1950
     24  CA        -3.0760  -36.5280   24.5920 C.3   387  THR387      0.1897
     25  C         -3.1090  -35.3720   23.6060 C.2   387  THR387      0.2313
     26  O         -4.1860  -34.8790   23.2750 O.2   387  THR387     -0.2863
     27  CB        -3.8800  -36.0840   25.8180 C.3   387  THR387      0.1794
     28  OG1       -3.3820  -34.8240   26.2560 O.3   387  THR387     -0.2208
     29  CG2       -3.7120  -37.0190   26.9490 C.3   387  THR387      0.0378
     30  N         -2.2190  -32.4110   24.1990 N.3   389  HIS389     -0.1226
     31  CA        -2.3000  -31.1580   24.9270 C.3   389  HIS389      0.1752
     32  C         -1.0580  -30.2590   24.8630 C.2   389  HIS389      0.2596
     33  O         -1.1680  -29.0380   24.8320 O.2   389  HIS389     -0.2718
     34  CB        -2.6260  -31.4430   26.3690 C.3   389  HIS389      0.0759
     35  CG        -3.0200  -30.2270   27.1200 C.ar  389  HIS389      0.0818
     36  ND1       -3.9940  -29.3640   26.6620 N.ar  389  HIS389     -0.2268
     37  CD2       -2.5760  -29.7190   28.2930 C.ar  389  HIS389      0.1154
     38  CE1       -4.1290  -28.3670   27.5200 C.ar  389  HIS389      0.1986
     39  NE2       -3.2880  -28.5640   28.5230 N.ar  389  HIS389     -0.2212
     40  N          0.1260  -30.8660   24.8720 N.am  390  SER390     -0.1952
     41  CA         1.3650  -30.0830   24.8390 C.3   390  SER390      0.1924
     42  C          1.6180  -29.5310   23.4660 C.2   390  SER390      0.2314
     43  O          2.1960  -28.4600   23.3410 O.2   390  SER390     -0.2863
     44  CB         2.5640  -30.9320   25.2340 C.3   390  SER390      0.2116
     45  OG         2.4390  -31.3550   26.5680 O.3   390  SER390     -0.2180
     46  N          3.5070  -39.3180   19.4350 N.3   407  THR407     -0.1203
     47  CA         2.5200  -39.8440   20.3570 C.3   407  THR407      0.1994
     48  C          2.1610  -41.2950   20.0480 C.2   407  THR407      0.2617
     49  O          2.2160  -41.7240   18.9010 O.2   407  THR407     -0.2717
     50  CB         1.2640  -38.9540   20.3590 C.3   407  THR407      0.1784
     51  OG1        0.3920  -39.3550   21.4210 O.3   407  THR407     -0.2211
     52  CG2        0.5190  -39.0770   19.0320 C.3   407  THR407      0.0376
     53  N          1.8210  -42.0630   21.0720 N.am  408  ARG408     -0.1979
     54  CA         1.4020  -43.4300   20.8380 C.3   408  ARG408      0.1597
     55  C         -0.0980  -43.4710   20.6850 C.2   408  ARG408      0.2287
     56  O         -0.6460  -44.4800   20.2410 O.2   408  ARG408     -0.2864
     57  CB         1.8160  -44.3570   21.9860 C.3   408  ARG408      0.0334
     58  CG         3.2760  -44.7430   21.9630 C.3   408  ARG408      0.0492
     59  CD         3.5600  -45.8830   22.9140 C.3   408  ARG408      0.2205
     60  NE         4.9630  -46.2680   22.8930 N.pl3 408  ARG408     -0.0865
     61  CZ         5.8950  -45.7260   23.6770 C.cat 408  ARG408      0.5346
     62  NH1        5.5850  -44.7410   24.5320 N.pl3 408  ARG408      0.1354
     63  NH2        7.1530  -46.1630   23.6070 N.pl3 408  ARG408      0.1354
     64  N         13.2370  -45.7680   31.2500 N.3   435  TRP435     -0.1241
     65  CA        12.4710  -44.6720   30.6980 C.3   435  TRP435      0.1605
     66  C         13.3210  -43.8430   29.7490 C.2   435  TRP435      0.2264
     67  O         13.4380  -44.2040   28.5910 O.2   435  TRP435     -0.2867
     68  CB        11.8600  -43.8100   31.7820 C.3   435  TRP435      0.0550
     69  CG        10.8100  -42.9380   31.2340 C.ar  435  TRP435      0.0003
     70  CD1        9.7920  -43.3080   30.4040 C.ar  435  TRP435      0.0946
     71  CD2       10.6590  -41.5470   31.4590 C.ar  435  TRP435      0.0152
     72  NE1        9.0110  -42.2180   30.0910 N.ar  435  TRP435     -0.2442
     73  CE2        9.5220  -41.1250   30.7320 C.ar  435  TRP435      0.0810
     74  CE3       11.3730  -40.6090   32.2010 C.ar  435  TRP435      0.0012
     75  CZ2        9.0830  -39.8190   30.7360 C.ar  435  TRP435      0.0191
     76  CZ3       10.9390  -39.3140   32.2020 C.ar  435  TRP435      0.0001
     77  CH2        9.8020  -38.9260   31.4750 C.ar  435  TRP435      0.0015
     78  N         12.1950  -42.2280   25.9070 N.3   439  VAL439     -0.1245
     79  CA        12.1670  -40.8510   25.4870 C.3   439  VAL439      0.1561
     80  C         13.0980  -40.7140   24.2770 C.2   439  VAL439      0.2260
     81  O         12.6460  -40.4200   23.1720 O.2   439  VAL439     -0.2867
     82  CB        12.5420  -39.8880   26.6660 C.3   439  VAL439      0.0252
     83  CG1       12.9660  -38.5180   26.1520 C.3   439  VAL439      0.0019
     84  CG2       11.3810  -39.7610   27.6480 C.3   439  VAL439      0.0019
     85  N         11.8820  -41.9900   21.0090 N.3   442  ARG442     -0.1245
     86  CA        10.7990  -41.1660   20.4620 C.3   442  ARG442      0.1563
     87  C         11.2840  -39.8860   19.8270 C.2   442  ARG442      0.2260
     88  O         10.8990  -39.5630   18.7180 O.2   442  ARG442     -0.2867
     89  CB         9.7880  -40.8480   21.5540 C.3   442  ARG442      0.0307
     90  CG         9.0860  -42.0980   22.0090 C.3   442  ARG442      0.0489
     91  CD         7.8720  -41.7940   22.8090 C.3   442  ARG442      0.2205
     92  NE         8.0820  -42.0680   24.2180 N.pl3 442  ARG442     -0.0865
     93  CZ         7.3390  -41.5220   25.1640 C.cat 442  ARG442      0.5346
     94  NH1        6.3740  -40.6630   24.8160 N.pl3 442  ARG442      0.1354
     95  NH2        7.5710  -41.8090   26.4400 N.pl3 442  ARG442      0.1354
     96  N          9.9310  -32.1850   26.2790 N.3   466  THR466     -0.1203
     97  CA         9.5360  -33.4820   26.8830 C.3   466  THR466      0.1994
     98  C          9.1960  -33.3480   28.3740 C.2   466  THR466      0.2618
     99  O          9.1690  -32.2450   28.9210 O.2   466  THR466     -0.2717
    100  CB        10.6510  -34.5170   26.7570 C.3   466  THR466      0.1784
    101  OG1       11.7690  -34.0470   27.5010 O.3   466  THR466     -0.2211
    102  CG2       11.1140  -34.6750   25.3460 C.3   466  THR466      0.0376
    103  N          8.9630  -34.4810   29.0340 N.am  467  GLY467     -0.1956
    104  CA         8.5470  -34.4820   30.4380 C.3   467  GLY467      0.1869
    105  C          9.5070  -35.2100   31.3610 C.2   467  GLY467      0.2309
    106  O         10.3000  -36.0290   30.9050 O.2   467  GLY467     -0.2863
    107  N          8.7460  -37.2900   33.8830 N.3   469  ARG469     -0.1231
    108  CA         8.2670  -38.6430   34.2140 C.3   469  ARG469      0.1679
    109  C          7.1670  -38.9880   33.2100 C.2   469  ARG469      0.2434
    110  O          6.6390  -38.0970   32.5590 O.2   469  ARG469     -0.2733
    111  CB         7.7490  -38.7260   35.6620 C.3   469  ARG469      0.0321
    112  CG         6.6160  -37.7410   35.9930 C.3   469  ARG469      0.0489
    113  CD         5.2420  -38.3640   35.8270 C.3   469  ARG469      0.2205
    114  NE         4.7180  -38.8700   37.0940 N.pl3 469  ARG469     -0.0865
    115  CZ         3.6280  -39.6320   37.2280 C.cat 469  ARG469      0.5346
    116  NH1        2.9020  -40.0070   36.1750 N.pl3 469  ARG469      0.1354
    117  NH2        3.2570  -40.0260   38.4360 N.pl3 469  ARG469      0.1354
    118  N          6.8330  -40.2830   33.0680 N.am  470  PRO470     -0.2718
    119  CA         5.8290  -40.7360   32.0970 C.3   470  PRO470      0.1535
    120  C          4.4090  -40.3600   32.5000 C.2   470  PRO470      0.2599
    121  O          4.1500  -40.1060   33.6750 O.2   470  PRO470     -0.2715
    122  CB         5.9740  -42.2560   32.1280 C.3   470  PRO470      0.0310
    123  CG         7.2730  -42.5210   32.8160 C.3   470  PRO470      0.0237
    124  CD         7.4100  -41.4190   33.8100 C.3   470  PRO470      0.0939
    125  N          3.4970  -40.3460   31.5310 N.am  471  GLY471     -0.1941
    126  CA         2.1130  -39.9490   31.7720 C.3   471  GLY471      0.2014
    127  C          1.9000  -38.5850   31.1730 C.2   471  GLY471      0.2640
    128  O          2.8260  -38.0100   30.6240 O.2   471  GLY471     -0.2714
    129  N          0.6860  -38.0630   31.2690 N.am  472  SER472     -0.1935
    130  CA         0.3920  -36.7910   30.6550 C.3   472  SER472      0.2055
    131  C          0.4510  -35.7390   31.7430 C.2   472  SER472      0.2644
    132  O          0.3850  -36.0790   32.9090 O.2   472  SER472     -0.2714
    133  CB        -1.0120  -36.8070   30.0870 C.3   472  SER472      0.2130
    134  OG        -1.7900  -35.8810   30.8440 O.3   472  SER472     -0.2179
    135  N          0.5410  -34.4700   31.3500 N.am  473  GLY473     -0.1939
    136  CA         0.4970  -33.3220   32.2770 C.3   473  GLY473      0.2014
    137  C          1.8090  -32.9890   32.9630 C.2   473  GLY473      0.2639
    138  O          1.8540  -32.1950   33.9100 O.2   473  GLY473     -0.2714
    139  N          2.8880  -33.5990   32.4980 N.am  474  TYR474     -0.1959
    140  CA         4.1650  -33.4250   33.1600 C.3   474  TYR474      0.1771
    141  C          5.2230  -32.8790   32.2190 C.2   474  TYR474      0.2620
    142  O          6.4140  -32.9360   32.5400 O.2   474  TYR474     -0.2715
    143  CB         4.6160  -34.7530   33.7420 C.3   474  TYR474      0.0574
    144  CG         3.6980  -35.2940   34.8200 C.ar  474  TYR474     -0.0198
    145  CD1        3.0530  -36.5280   34.6650 C.ar  474  TYR474     -0.0009
    146  CD2        3.4710  -34.5740   35.9960 C.ar  474  TYR474     -0.0009
    147  CE1        2.2110  -37.0340   35.6620 C.ar  474  TYR474      0.0417
    148  CE2        2.6340  -35.0720   37.0020 C.ar  474  TYR474      0.0417
    149  CZ         2.0100  -36.3080   36.8310 C.ar  474  TYR474      0.1957
    150  OH         1.1840  -36.8020   37.8250 O.3   474  TYR474     -0.2866
    151  N          4.7950  -32.3640   31.0600 N.am  475  THR475     -0.1951
    152  CA         5.7120  -31.7480   30.1200 C.3   475  THR475      0.1897
    153  C          6.4430  -30.7110   30.9290 C.2   475  THR475      0.2313
    154  O          5.8000  -29.9330   31.6450 O.2   475  THR475     -0.2863
    155  CB         4.9490  -30.9960   29.0120 C.3   475  THR475      0.1794
    156  OG1        4.4590  -31.9240   28.0230 O.3   475  THR475     -0.2208
    157  CG2        5.8470  -29.9470   28.3260 C.3   475  THR475      0.0378
@<TRIPOS>BOND
     1    88    87    2
     2    49    48    2
     3    52    50    1
     4    46    47    1
     5    87    86    1
     6    48    47    1
     7    48    53   am
     8    56    55    2
     9    47    50    1
    10    50    51    1
    11    86    85    1
    12    86    89    1
    13    55    54    1
    14    54    53    1
    15    54    57    1
    16    89    90    1
    17    15    13    1
    18    58    57    1
    19    58    59    1
    20    90    91    1
    21     7     6    1
    22     1     2    1
    23    91    92    1
    24    12    11    2
    25    60    59    1
    26    60    61    2
    27     2     3    1
    28     2     5    1
    29    13    14    1
    30    13    10    1
    31    81    80    2
    32     9     3   am
    33     9    10    1
    34     6     5    1
    35     6     8    1
    36    26    25    2
    37    43    42    2
    38    42    41    1
    39    25    24    1
    40    63    61    1
    41    61    62    1
    42     3     4    2
    43    10    11    1
    44    11    16   am
    45    19    18    2
    46    30    31    1
    47    92    93    2
    48    80    79    1
    49    24    23    1
    50    24    27    1
    51    18    23   am
    52    18    17    1
    53    94    93    1
    54    33    32    2
    55    41    40    1
    56    41    44    1
    57    32    40   am
    58    32    31    1
    59    31    34    1
    60    16    17    1
    61    93    95    1
    62    44    45    1
    63    17    20    1
    64   102   100    1
    65    79    78    1
    66    79    82    1
    67    27    28    1
    68    27    29    1
    69    83    82    1
    70    96    97    1
    71    34    35    1
    72    36    35   ar
    73    36    38   ar
    74    82    84    1
    75   100    97    1
    76   100   101    1
    77    20    22    1
    78    20    21    1
    79    97    98    1
    80    35    37   ar
    81    38    39   ar
    82   156   155    1
    83    37    39   ar
    84   157   155    1
    85    98    99    2
    86    98   103   am
    87    67    66    2
    88   155   152    1
    89   103   104    1
    90    66    65    1
    91   133   130    1
    92   133   134    1
    93    72    70   ar
    94    72    73   ar
    95   152   153    1
    96   152   151    1
    97    70    69   ar
    98   104   105    1
    99   128   127    2
   100   130   129    1
   101   130   131    1
   102    65    64    1
   103    65    68    1
   104    73    75   ar
   105    73    71   ar
   106    75    77   ar
   107   106   105    2
   108   153   154    2
   109   151   141   am
   110   127   129   am
   111   127   126    1
   112    69    71   ar
   113    69    68    1
   114   135   131   am
   115   135   136    1
   116    71    74   ar
   117    77    76   ar
   118   125   126    1
   119   125   120   am
   120   131   132    2
   121   119   122    1
   122   119   120    1
   123   119   118    1
   124   122   123    1
   125    74    76   ar
   126   141   142    2
   127   141   140    1
   128   136   137    1
   129   139   137   am
   130   139   140    1
   131   120   121    2
   132   110   109    2
   133   123   124    1
   134   137   138    2
   135   118   109   am
   136   118   124    1
   137   140   143    1
   138   109   108    1
   139   143   144    1
   140   107   108    1
   141   108   111    1
   142   145   144   ar
   143   145   147   ar
   144   144   146   ar
   145   111   112    1
   146   147   149   ar
   147   113   112    1
   148   113   114    1
   149   146   148   ar
   150   116   115    1
   151   149   148   ar
   152   149   150    1
   153   114   115    2
   154   115   117    1
