@<TRIPOS>MOLECULE
tmp/2vgiB00.pdb
 144 141 0 0 0
SMALL
GASTEIGER

@<TRIPOS>ATOM
      1  N          7.0140  -34.9250   21.6700 N.3   364  LEU364     -0.1231
      2  CA         6.3340  -36.1120   22.1220 C.3   364  LEU364      0.1693
      3  C          5.0970  -35.6730   22.8250 C.2   364  LEU364      0.2593
      4  O          5.1480  -34.9300   23.7990 O.2   364  LEU364     -0.2718
      5  CB         7.1720  -36.8450   23.1350 C.3   364  LEU364      0.0284
      6  CG         8.2850  -37.6870   22.5550 C.3   364  LEU364      0.0019
      7  CD1        9.1100  -36.9280   21.5020 C.3   364  LEU364      0.0001
      8  CD2        9.0960  -38.0420   23.7680 C.3   364  LEU364      0.0001
      9  N          3.9820  -36.1600   22.3250 N.am  365  THR365     -0.1939
     10  CA         2.7220  -35.9420   22.9780 C.3   365  THR365      0.2028
     11  C          1.8440  -37.2310   23.0410 C.2   365  THR365      0.2643
     12  O          1.8300  -38.0670   22.1160 O.2   365  THR365     -0.2714
     13  CB         2.0040  -34.7840   22.3310 C.3   365  THR365      0.1808
     14  OG1        0.8820  -34.4370   23.1330 O.3   365  THR365     -0.2208
     15  CG2        1.5280  -35.1540   20.9700 C.3   365  THR365      0.0379
     16  N          1.1400  -37.3910   24.1590 N.am  366  THR366     -0.1936
     17  CA         0.2340  -38.5350   24.3200 C.3   366  THR366      0.2028
     18  C         -1.1980  -38.2330   23.8300 C.2   366  THR366      0.2642
     19  O         -1.8250  -39.0560   23.1410 O.2   366  THR366     -0.2714
     20  CB         0.1630  -38.9820   25.7910 C.3   366  THR366      0.1808
     21  OG1        1.4560  -39.4510   26.2210 O.3   366  THR366     -0.2208
     22  CG2       -0.8950  -40.0700   25.9730 C.3   366  THR366      0.0379
     23  N         -1.7190  -37.0720   24.2280 N.am  367  THR367     -0.1950
     24  CA        -3.0510  -36.6590   23.8390 C.3   367  THR367      0.1897
     25  C         -2.9380  -35.5680   22.7940 C.2   367  THR367      0.2313
     26  O         -3.9040  -35.2730   22.1200 O.2   367  THR367     -0.2863
     27  CB        -3.8290  -36.0540   25.0010 C.3   367  THR367      0.1794
     28  OG1       -3.1470  -34.8800   25.4370 O.3   367  THR367     -0.2208
     29  CG2       -3.9250  -37.0140   26.1350 C.3   367  THR367      0.0378
     30  N         -2.1560  -32.4610   23.7570 N.3   369  ARG369     -0.1231
     31  CA        -2.3920  -31.1820   24.3670 C.3   369  ARG369      0.1694
     32  C         -1.1830  -30.3040   24.1090 C.2   369  ARG369      0.2592
     33  O         -1.3120  -29.2080   23.5800 O.2   369  ARG369     -0.2718
     34  CB        -2.6890  -31.3050   25.8470 C.3   369  ARG369      0.0321
     35  CG        -2.6300  -30.0170   26.4980 C.3   369  ARG369      0.0489
     36  CD        -3.4450  -29.9650   27.7530 C.3   369  ARG369      0.2205
     37  NE        -3.6060  -28.5630   28.1700 N.pl3 369  ARG369     -0.0865
     38  CZ        -4.3770  -27.6870   27.5120 C.cat 369  ARG369      0.5346
     39  NH1       -5.0660  -28.0810   26.4310 N.pl3 369  ARG369      0.1354
     40  NH2       -4.4630  -26.4170   27.9150 N.pl3 369  ARG369      0.1354
     41  N         -0.0070  -30.8290   24.4360 N.am  370  SER370     -0.1952
     42  CA         1.2570  -30.0980   24.3560 C.3   370  SER370      0.1924
     43  C          1.5750  -29.7250   22.9640 C.2   370  SER370      0.2314
     44  O          2.1900  -28.7070   22.7480 O.2   370  SER370     -0.2863
     45  CB         2.4380  -30.9320   24.8390 C.3   370  SER370      0.2116
     46  OG         2.1400  -31.6480   26.0220 O.3   370  SER370     -0.2180
     47  N          1.7900  -42.2310   20.1230 N.3   388  ARG388     -0.1245
     48  CA         1.3900  -43.5840   19.7900 C.3   388  ARG388      0.1563
     49  C         -0.0880  -43.6960   19.6180 C.2   388  ARG388      0.2260
     50  O         -0.5480  -44.7510   19.2410 O.2   388  ARG388     -0.2867
     51  CB         1.8100  -44.5820   20.8550 C.3   388  ARG388      0.0307
     52  CG         3.2020  -45.0700   20.7140 C.3   388  ARG388      0.0489
     53  CD         3.5850  -45.9330   21.8650 C.3   388  ARG388      0.2205
     54  NE         4.9710  -46.3500   21.7280 N.pl3 388  ARG388     -0.0865
     55  CZ         5.9570  -45.8920   22.4860 C.cat 388  ARG388      0.5346
     56  NH1        5.6950  -44.9950   23.4250 N.pl3 388  ARG388      0.1354
     57  NH2        7.1970  -46.3390   22.3250 N.pl3 388  ARG388      0.1354
     58  N         12.7880  -46.2100   29.6540 N.3   415  TRP415     -0.1241
     59  CA        12.0840  -44.9960   29.2570 C.3   415  TRP415      0.1605
     60  C         12.9750  -44.0340   28.4580 C.2   415  TRP415      0.2264
     61  O         12.6670  -43.7330   27.2900 O.2   415  TRP415     -0.2867
     62  CB        11.4890  -44.2930   30.4700 C.3   415  TRP415      0.0550
     63  CG        10.4740  -43.3050   30.0840 C.ar  415  TRP415      0.0003
     64  CD1        9.3470  -43.5340   29.3600 C.ar  415  TRP415      0.0946
     65  CD2       10.4770  -41.9280   30.4090 C.ar  415  TRP415      0.0152
     66  NE1        8.6420  -42.3690   29.2020 N.ar  415  TRP415     -0.2442
     67  CE2        9.3190  -41.3630   29.8370 C.ar  415  TRP415      0.0810
     68  CE3       11.3490  -41.1080   31.1250 C.ar  415  TRP415      0.0012
     69  CZ2        9.0120  -40.0250   29.9570 C.ar  415  TRP415      0.0191
     70  CZ3       11.0460  -39.7920   31.2450 C.ar  415  TRP415      0.0001
     71  CH2        9.8820  -39.2560   30.6650 C.ar  415  TRP415      0.0015
     72  N         11.8410  -42.0870   19.8710 N.3   422  ARG422     -0.1245
     73  CA        10.6810  -41.3710   19.3900 C.3   422  ARG422      0.1563
     74  C         11.0750  -39.9950   18.8070 C.2   422  ARG422      0.2260
     75  O         10.6170  -39.5980   17.7260 O.2   422  ARG422     -0.2867
     76  CB         9.6580  -41.2550   20.5030 C.3   422  ARG422      0.0307
     77  CG         8.9110  -42.5230   20.7480 C.3   422  ARG422      0.0489
     78  CD         7.7560  -42.3110   21.6950 C.3   422  ARG422      0.2205
     79  NE         8.1110  -42.3000   23.1080 N.pl3 422  ARG422     -0.0865
     80  CZ         7.2720  -41.8750   24.0350 C.cat 422  ARG422      0.5346
     81  NH1        6.1020  -41.4260   23.6500 N.pl3 422  ARG422      0.1354
     82  NH2        7.5810  -41.8720   25.3230 N.pl3 422  ARG422      0.1354
     83  N          9.8300  -32.3400   25.5430 N.3   446  THR446     -0.1203
     84  CA         9.5480  -33.6290   26.1560 C.3   446  THR446      0.1994
     85  C          9.1500  -33.5440   27.6260 C.2   446  THR446      0.2618
     86  O          8.9000  -32.4680   28.1360 O.2   446  THR446     -0.2717
     87  CB        10.7900  -34.4760   26.0870 C.3   446  THR446      0.1784
     88  OG1       11.9140  -33.6670   26.4080 O.3   446  THR446     -0.2211
     89  CG2       10.9970  -34.9960   24.6860 C.3   446  THR446      0.0376
     90  N          9.1070  -34.6780   28.3200 N.am  447  GLY447     -0.1956
     91  CA         8.7340  -34.7030   29.7470 C.3   447  GLY447      0.1869
     92  C          9.7590  -35.3340   30.6890 C.2   447  GLY447      0.2309
     93  O         10.7670  -35.8850   30.2700 O.2   447  GLY447     -0.2863
     94  N          8.9900  -37.7320   32.9900 N.3   449  ARG449     -0.1231
     95  CA         8.4220  -38.9880   33.4480 C.3   449  ARG449      0.1679
     96  C          7.1990  -39.3140   32.5960 C.2   449  ARG449      0.2434
     97  O          6.5120  -38.4180   32.1190 O.2   449  ARG449     -0.2733
     98  CB         8.0520  -38.8950   34.9270 C.3   449  ARG449      0.0321
     99  CG         6.8620  -38.0260   35.1860 C.3   449  ARG449      0.0489
    100  CD         5.6130  -38.8470   35.0330 C.3   449  ARG449      0.2205
    101  NE         5.0250  -39.1000   36.3370 N.pl3 449  ARG449     -0.0865
    102  CZ         3.9570  -39.8540   36.5380 C.cat 449  ARG449      0.5346
    103  NH1        3.3480  -40.4620   35.5180 N.pl3 449  ARG449      0.1354
    104  NH2        3.4990  -39.9860   37.7730 N.pl3 449  ARG449      0.1354
    105  N          6.9240  -40.6020   32.4120 N.am  450  PRO450     -0.2718
    106  CA         5.9100  -41.1130   31.4980 C.3   450  PRO450      0.1535
    107  C          4.5000  -40.6590   31.8200 C.2   450  PRO450      0.2599
    108  O          4.1540  -40.5240   32.9960 O.2   450  PRO450     -0.2715
    109  CB         6.0260  -42.6160   31.6850 C.3   450  PRO450      0.0310
    110  CG         7.4140  -42.8170   32.2040 C.3   450  PRO450      0.0237
    111  CD         7.6410  -41.6860   33.0920 C.3   450  PRO450      0.0939
    112  N          3.6990  -40.4320   30.7780 N.am  451  GLY451     -0.1941
    113  CA         2.2810  -40.0720   30.9490 C.3   451  GLY451      0.2014
    114  C          1.8820  -38.6390   30.5980 C.2   451  GLY451      0.2640
    115  O          2.7040  -37.7360   30.6010 O.2   451  GLY451     -0.2714
    116  N          0.6020  -38.4170   30.3220 N.am  452  SER452     -0.1935
    117  CA         0.1850  -37.1090   29.9260 C.3   452  SER452      0.2055
    118  C          0.3050  -36.1980   31.0930 C.2   452  SER452      0.2644
    119  O          0.2060  -36.6330   32.1990 O.2   452  SER452     -0.2714
    120  CB        -1.2510  -37.1060   29.4330 C.3   452  SER452      0.2130
    121  OG        -1.6160  -35.7820   29.0380 O.3   452  SER452     -0.2179
    122  N          0.5360  -34.9200   30.8090 N.am  453  GLY453     -0.1939
    123  CA         0.3930  -33.8420   31.7830 C.3   453  GLY453      0.2014
    124  C          1.6860  -33.3040   32.3200 C.2   453  GLY453      0.2639
    125  O          1.6970  -32.3720   33.1130 O.2   453  GLY453     -0.2714
    126  N          2.7860  -33.8790   31.8680 N.am  454  TYR454     -0.1959
    127  CA         4.0570  -33.5980   32.4890 C.3   454  TYR454      0.1771
    128  C          5.1270  -33.0520   31.5760 C.2   454  TYR454      0.2620
    129  O          6.3150  -33.1250   31.9190 O.2   454  TYR454     -0.2715
    130  CB         4.6060  -34.8730   33.0890 C.3   454  TYR454      0.0574
    131  CG         3.7750  -35.4830   34.1890 C.ar  454  TYR454     -0.0198
    132  CD1        3.1120  -36.6890   33.9910 C.ar  454  TYR454     -0.0009
    133  CD2        3.6760  -34.8720   35.4280 C.ar  454  TYR454     -0.0009
    134  CE1        2.3570  -37.2760   35.0010 C.ar  454  TYR454      0.0417
    135  CE2        2.9260  -35.4440   36.4470 C.ar  454  TYR454      0.0417
    136  CZ         2.2680  -36.6500   36.2330 C.ar  454  TYR454      0.1957
    137  OH         1.5290  -37.2090   37.2610 O.3   454  TYR454     -0.2866
    138  N          4.7490  -32.5140   30.4190 N.am  455  THR455     -0.1951
    139  CA         5.7650  -31.9500   29.5490 C.3   455  THR455      0.1897
    140  C          6.5010  -30.8940   30.3510 C.2   455  THR455      0.2313
    141  O          5.8980  -30.2830   31.2270 O.2   455  THR455     -0.2863
    142  CB         5.1570  -31.3200   28.3460 C.3   455  THR455      0.1794
    143  OG1        4.5050  -32.3270   27.5780 O.3   455  THR455     -0.2208
    144  CG2        6.2480  -30.7260   27.5250 C.3   455  THR455      0.0378
@<TRIPOS>BOND
     1    75    74    2
     2    74    73    1
     3    50    49    2
     4    73    72    1
     5    73    76    1
     6    49    48    1
     7    48    47    1
     8    48    51    1
     9    76    77    1
    10    52    51    1
    11    52    53    1
    12    77    78    1
    13    15    13    1
    14     7     6    1
    15     1     2    1
    16    78    79    1
    17    54    53    1
    18    54    55    2
    19    12    11    2
    20    26    25    2
    21     2     3    1
    22     2     5    1
    23    57    55    1
    24     9     3   am
    25     9    10    1
    26    13    10    1
    27    13    14    1
    28    55    56    1
    29     6     5    1
    30     6     8    1
    31    44    43    2
    32    25    24    1
    33     3     4    2
    34    43    42    1
    35    10    11    1
    36    11    16   am
    37    79    80    2
    38    19    18    2
    39    33    32    2
    40    81    80    1
    41    30    31    1
    42    18    23   am
    43    18    17    1
    44    24    23    1
    45    24    27    1
    46    80    82    1
    47    32    31    1
    48    32    41   am
    49    16    17    1
    50    17    20    1
    51    42    41    1
    52    42    45    1
    53    31    34    1
    54    89    87    1
    55    45    46    1
    56    27    28    1
    57    27    29    1
    58    83    84    1
    59    20    22    1
    60    20    21    1
    61    34    35    1
    62    87    84    1
    63    87    88    1
    64    84    85    1
    65    39    38    1
    66    35    36    1
    67    61    60    2
    68    38    40    1
    69    38    37    2
    70   144   142    1
    71   143   142    1
    72    85    86    2
    73    85    90   am
    74    36    37    1
    75    90    91    1
    76   142   139    1
    77    60    59    1
    78   121   120    1
    79    66    64   ar
    80    66    67   ar
    81    59    58    1
    82    59    62    1
    83    64    63   ar
    84   120   117    1
    85   139   140    1
    86   139   138    1
    87    91    92    1
    88    67    69   ar
    89    67    65   ar
    90   117   116    1
    91   117   118    1
    92    69    71   ar
    93    63    65   ar
    94    63    62    1
    95    93    92    2
    96   116   114   am
    97   140   141    2
    98    65    68   ar
    99   138   128   am
   100   114   115    2
   101   114   113    1
   102    71    70   ar
   103   112   113    1
   104   112   107   am
   105   122   118   am
   106   122   123    1
   107   118   119    2
   108    68    70   ar
   109   106   109    1
   110   106   107    1
   111   106   105    1
   112   128   129    2
   113   128   127    1
   114   109   110    1
   115   123   124    1
   116   107   108    2
   117   126   124   am
   118   126   127    1
   119    97    96    2
   120   110   111    1
   121   124   125    2
   122   105    96   am
   123   105   111    1
   124   127   130    1
   125    96    95    1
   126    94    95    1
   127   130   131    1
   128    95    98    1
   129   132   131   ar
   130   132   134   ar
   131   131   133   ar
   132    98    99    1
   133   134   136   ar
   134   100    99    1
   135   100   101    1
   136   133   135   ar
   137   103   102    1
   138   136   135   ar
   139   136   137    1
   140   101   102    2
   141   102   104    1
