@<TRIPOS>MOLECULE
tmp/2vgiB01.pdb
 117 103 0 0 0
SMALL
GASTEIGER

@<TRIPOS>ATOM
      1  N        -15.1340  -35.3450    5.6340 N.3    60  ARG60      -0.1245
      2  CA       -16.3370  -34.8820    6.2640 C.3    60  ARG60       0.1563
      3  C        -17.5350  -35.6640    5.7760 C.2    60  ARG60       0.2260
      4  O        -17.7790  -35.7550    4.5710 O.2    60  ARG60      -0.2867
      5  CB       -16.5480  -33.4140    5.9530 C.3    60  ARG60       0.0307
      6  CG       -17.7780  -32.8260    6.5730 C.3    60  ARG60       0.0489
      7  CD       -17.8050  -31.3290    6.4160 C.3    60  ARG60       0.2205
      8  NE       -19.1580  -30.8110    6.5860 N.pl3  60  ARG60      -0.0865
      9  CZ       -19.9690  -30.5030    5.5710 C.cat  60  ARG60       0.5346
     10  NH1      -19.5340  -30.6490    4.3270 N.pl3  60  ARG60       0.1354
     11  NH2      -21.2190  -30.0510    5.7930 N.pl3  60  ARG60       0.1354
     12  N        -21.4860  -35.6700    5.5710 N.3    62  ASN62      -0.1240
     13  CA       -22.6020  -34.7840    5.7270 C.3    62  ASN62       0.1653
     14  C        -23.8570  -35.5460    5.9460 C.2    62  ASN62       0.2266
     15  O        -24.4980  -35.9920    5.0180 O.2    62  ASN62      -0.2867
     16  CB       -22.7900  -33.8990    4.5230 C.3    62  ASN62       0.1155
     17  CG       -23.9700  -32.9270    4.6910 C.2    62  ASN62       0.2627
     18  OD1      -24.5600  -32.7820    5.7790 O.2    62  ASN62      -0.2716
     19  ND2      -24.3010  -32.2310    3.5940 N.am   62  ASN62      -0.0877
     20  N        -26.6370  -34.5870    6.3150 N.3    64  SER64      -0.1217
     21  CA       -27.8390  -33.9830    5.7760 C.3    64  SER64       0.1889
     22  C        -28.3700  -34.8530    4.6730 C.2    64  SER64       0.2288
     23  O        -29.5200  -34.7040    4.2740 O.2    64  SER64      -0.2866
     24  CB       -27.5090  -32.6310    5.1580 C.3    64  SER64       0.2089
     25  OG       -27.9350  -31.6140    6.0630 O.3    64  SER64      -0.2183
     26  N        -20.6870  -34.5070   10.0900 N.3   100  ASP100     -0.1239
     27  CA       -21.3650  -33.2330   10.0760 C.3   100  ASP100      0.1674
     28  C        -22.8200  -33.4530   10.3310 C.2   100  ASP100      0.2266
     29  O        -23.5470  -33.8170    9.4260 O.2   100  ASP100     -0.2867
     30  CB       -21.1340  -32.4920    8.7730 C.3   100  ASP100      0.1410
     31  CG       -21.7530  -31.1130    8.7800 C.2   100  ASP100      0.3668
     32  OD1      -22.9470  -31.0220    9.1530 O.co2 100  ASP100     -0.2456
     33  OD2      -21.0710  -30.1180    8.3970 O.co2 100  ASP100     -0.2456
     34  N        -32.7030  -28.5460    9.8690 N.3   105  GLU105     -0.1245
     35  CA       -32.9060  -27.8860    8.5770 C.3   105  GLU105      0.1567
     36  C        -34.3860  -27.7610    8.2990 C.2   105  GLU105      0.2260
     37  O        -35.2290  -28.2680    9.0570 O.2   105  GLU105     -0.2867
     38  CB       -32.2880  -28.6950    7.4470 C.3   105  GLU105      0.0388
     39  CG       -30.9280  -29.2730    7.7610 C.3   105  GLU105      0.1160
     40  CD       -30.4080  -30.0730    6.5800 C.2   105  GLU105      0.3649
     41  OE1      -30.9980  -31.1670    6.2690 O.co2 105  GLU105     -0.2457
     42  OE2      -29.4040  -29.6010    5.9620 O.co2 105  GLU105     -0.2457
     43  N        -24.2900  -28.8830   13.7100 N.3   176  SER176     -0.1217
     44  CA       -25.0860  -27.9340   12.9080 C.3   176  SER176      0.1889
     45  C        -26.0620  -27.1310   13.7460 C.2   176  SER176      0.2288
     46  O        -26.7460  -27.6690   14.5910 O.2   176  SER176     -0.2866
     47  CB       -25.8880  -28.6640   11.8470 C.3   176  SER176      0.2089
     48  OG       -25.1280  -28.9320   10.6890 O.3   176  SER176     -0.2183
     49  N        -20.7770  -25.3500   14.9450 N.3   203  LYS203     -0.1245
     50  CA       -21.1100  -24.5780   13.7600 C.3   203  LYS203      0.1561
     51  C        -21.9350  -23.3500   14.1380 C.2   203  LYS203      0.2260
     52  O        -22.9560  -23.4350   14.8590 O.2   203  LYS203     -0.2867
     53  CB       -21.9320  -25.4150   12.7920 C.3   203  LYS203      0.0271
     54  CG       -21.1960  -26.6290   12.2270 C.3   203  LYS203      0.0035
     55  CD       -21.3300  -26.7610   10.7110 C.3   203  LYS203      0.0206
     56  CE       -22.7630  -26.9820   10.2660 C.3   203  LYS203      0.1093
     57  NZ       -22.8230  -28.1200    9.2830 N.3   203  LYS203     -0.1314
     58  N        -24.2400  -20.6000   12.5030 N.3   205  GLU205     -0.1245
     59  CA       -25.0150  -20.5170   11.2680 C.3   205  GLU205      0.1567
     60  C        -26.1090  -19.5030   11.3370 C.2   205  GLU205      0.2260
     61  O        -26.8960  -19.4340   10.4070 O.2   205  GLU205     -0.2867
     62  CB       -25.6860  -21.8460   10.9340 C.3   205  GLU205      0.0388
     63  CG       -24.9330  -22.7600    9.9430 C.3   205  GLU205      0.1160
     64  CD       -25.4990  -24.1980    9.8780 C.2   205  GLU205      0.3649
     65  OE1      -25.8140  -24.8250   10.9200 O.co2 205  GLU205     -0.2457
     66  OE2      -25.5820  -24.7100    8.7650 O.co2 205  GLU205     -0.2457
     67  N        -16.8870  -23.5500   13.7570 N.3   224  MET224     -0.1245
     68  CA       -16.9460  -23.5460   12.3310 C.3   224  MET224      0.1570
     69  C        -17.7280  -22.3370   11.8930 C.2   224  MET224      0.2261
     70  O        -18.8960  -22.1690   12.2780 O.2   224  MET224     -0.2867
     71  CB       -17.6290  -24.8160   11.7970 C.3   224  MET224      0.0387
     72  CG       -17.2790  -25.0990   10.3270 C.3   224  MET224      0.0595
     73  SD       -18.5330  -25.9650    9.3620 S.3   224  MET224     -0.1393
     74  CE       -18.0590  -27.7100    9.5620 C.3   224  MET224      0.0692
     75  N        -19.8830  -20.9890    9.4480 N.3   226  ALA226     -0.1245
     76  CA       -20.6880  -21.6110    8.4000 C.3   226  ALA226      0.1562
     77  C        -21.3280  -20.5650    7.5040 C.2   226  ALA226      0.2260
     78  O        -22.4610  -20.1490    7.6870 O.2   226  ALA226     -0.2867
     79  CB       -21.7130  -22.5280    8.9960 C.3   226  ALA226      0.0290
     80  N        -22.3700  -20.5280    4.7020 N.3   228  GLY228     -0.1210
     81  CA       -23.5470  -20.9740    3.9710 C.3   228  GLY228      0.1956
     82  C        -24.8100  -20.4040    4.5630 C.2   228  GLY228      0.2611
     83  O        -25.4200  -19.5320    3.9350 O.2   228  GLY228     -0.2717
     84  N        -25.1930  -20.8600    5.7670 N.am  229  ASP229     -0.1973
     85  CA       -26.4990  -20.4990    6.3050 C.3   229  ASP229      0.1709
     86  C        -26.3690  -19.1450    6.8830 C.2   229  ASP229      0.2293
     87  O        -27.2820  -18.3260    6.8100 O.2   229  ASP229     -0.2864
     88  CB       -26.9770  -21.4710    7.3790 C.3   229  ASP229      0.1436
     89  CG       -27.2710  -22.8360    6.8350 C.2   229  ASP229      0.3671
     90  OD1      -28.3320  -23.0530    6.2020 O.co2 229  ASP229     -0.2456
     91  OD2      -26.4420  -23.7220    7.0470 O.co2 229  ASP229     -0.2456
     92  N        -15.6940  -22.0340    6.3740 N.3   260  ALA260     -0.1231
     93  CA       -16.4430  -22.9700    5.5020 C.3   260  ALA260      0.1694
     94  C        -17.2800  -22.4050    4.3290 C.2   260  ALA260      0.2592
     95  O        -17.7170  -21.2530    4.3290 O.2   260  ALA260     -0.2718
     96  CB       -17.2990  -23.8570    6.3520 C.3   260  ALA260      0.0304
     97  N        -17.4630  -23.2320    3.3180 N.am  261  THR261     -0.1953
     98  CA       -18.5330  -23.0690    2.3590 C.3   261  THR261      0.1897
     99  C        -18.2150  -22.1100    1.2460 C.2   261  THR261      0.2313
    100  O        -17.9940  -20.9440    1.4710 O.2   261  THR261     -0.2863
    101  CB       -19.8150  -22.5620    3.0450 C.3   261  THR261      0.1794
    102  OG1      -20.0410  -23.3090    4.2390 O.3   261  THR261     -0.2208
    103  CG2      -20.9930  -22.6510    2.0970 C.3   261  THR261      0.0378
    104  N        -12.0850  -25.5850    4.1090 N.3   293  MET293     -0.1245
    105  CA       -12.9560  -26.7030    3.8510 C.3   293  MET293      0.1570
    106  C        -13.5050  -26.6060    2.4540 C.2   293  MET293      0.2261
    107  O        -13.4660  -25.5380    1.8720 O.2   293  MET293     -0.2867
    108  CB       -14.0930  -26.6790    4.8850 C.3   293  MET293      0.0387
    109  CG       -15.2470  -27.6190    4.6180 C.3   293  MET293      0.0595
    110  SD       -16.0960  -28.1190    6.1240 S.3   293  MET293     -0.1393
    111  CE       -17.7820  -27.8680    5.6150 C.3   293  MET293      0.0692
    112  N        -16.8470  -28.3590   -0.1020 N.3   295  SER295     -0.1217
    113  CA       -18.0740  -29.1380   -0.1000 C.3   295  SER295      0.1889
    114  C        -18.5140  -29.6060   -1.4880 C.2   295  SER295      0.2288
    115  O        -18.1040  -30.6820   -1.9390 O.2   295  SER295     -0.2866
    116  CB       -19.1200  -28.3490    0.5810 C.3   295  SER295      0.2089
    117  OG       -18.5190  -27.9160    1.7840 O.3   295  SER295     -0.2183
@<TRIPOS>BOND
     1   115   114    2
     2   114   113    1
     3   112   113    1
     4   113   116    1
     5   116   117    1
     6    99   100    2
     7    99    98    1
     8   107   106    2
     9   103   101    1
    10    98   101    1
    11    98    97    1
    12   106   105    1
    13   101   102    1
    14    97    94   am
    15    19    17   am
    16   105   104    1
    17   105   108    1
    18    83    82    2
    19    81    82    1
    20    81    80    1
    21    23    22    2
    22    10     9    1
    23    94    95    2
    24    94    93    1
    25    16    17    1
    26    16    13    1
    27    82    84   am
    28     4     3    2
    29   109   108    1
    30   109   110    1
    31    22    21    1
    32    17    18    2
    33    15    14    2
    34    24    21    1
    35    24    25    1
    36    93    96    1
    37    93    92    1
    38     9    11    1
    39     9     8    2
    40    12    13    1
    41   111   110    1
    42     1     2    1
    43    13    14    1
    44    84    85    1
    45     3     2    1
    46    21    20    1
    47     5     2    1
    48     5     6    1
    49    42    40   ar
    50    90    89   ar
    51    41    40   ar
    52    85    86    1
    53    85    88    1
    54     7     6    1
    55     7     8    1
    56    40    39    1
    57    87    86    2
    58    89    91   ar
    59    89    88    1
    60    38    39    1
    61    38    35    1
    62    77    78    2
    63    77    76    1
    64    36    35    1
    65    36    37    2
    66    33    31   ar
    67    76    79    1
    68    76    75    1
    69    35    34    1
    70    66    64   ar
    71    30    31    1
    72    30    27    1
    73    31    32   ar
    74    57    56    1
    75    73    74    1
    76    73    72    1
    77    29    28    2
    78    64    63    1
    79    64    65   ar
    80    63    62    1
    81    27    26    1
    82    27    28    1
    83    56    55    1
    84    72    71    1
    85    61    60    2
    86    48    47    1
    87    55    54    1
    88    62    59    1
    89    59    60    1
    90    59    58    1
    91    71    68    1
    92    47    44    1
    93    69    70    2
    94    69    68    1
    95    54    53    1
    96    68    67    1
    97    53    50    1
    98    44    43    1
    99    44    45    1
   100    45    46    2
   101    50    51    1
   102    50    49    1
   103    51    52    2
