@<TRIPOS>MOLECULE
tmp/2vgjB00.pdb
 147 140 0 0 0
SMALL
GASTEIGER

@<TRIPOS>ATOM
      1  N         58.0090   23.9080   29.5440 N.3    48  ALA48      -0.1231
      2  CA        59.2080   23.5300   30.3270 C.3    48  ALA48       0.1694
      3  C         59.1970   24.2800   31.6760 C.2    48  ALA48       0.2592
      4  O         58.1380   24.4080   32.2790 O.2    48  ALA48      -0.2718
      5  CB        60.4780   23.7610   29.5490 C.3    48  ALA48       0.0304
      6  N         60.3300   24.7850   32.1600 N.am   49  SER49      -0.1952
      7  CA        60.3630   25.4270   33.5070 C.3    49  SER49       0.1924
      8  C         59.5730   26.7550   33.6750 C.2    49  SER49       0.2314
      9  O         59.6300   27.4060   34.7320 O.2    49  SER49      -0.2863
     10  CB        61.8160   25.6010   34.0090 C.3    49  SER49       0.2116
     11  OG        62.3960   24.3900   34.4470 O.3    49  SER49      -0.2180
     12  N         56.8360   27.1850   36.5440 N.3    52  LYS52      -0.1245
     13  CA        57.2210   27.6460   37.8810 C.3    52  LYS52       0.1561
     14  C         56.6540   29.0070   38.2180 C.2    52  LYS52       0.2260
     15  O         56.4040   29.2880   39.3770 O.2    52  LYS52      -0.2867
     16  CB        58.7380   27.6350   38.0580 C.3    52  LYS52       0.0271
     17  CG        59.3220   26.2080   38.1980 C.3    52  LYS52       0.0035
     18  CD        60.8220   26.1670   38.5190 C.3    52  LYS52       0.0206
     19  CE        61.2640   24.7350   38.8560 C.3    52  LYS52       0.1093
     20  NZ        61.9010   23.9710   37.7250 N.3    52  LYS52      -0.1314
     21  N         60.1520   10.5400   32.6770 N.3   139  TRP139     -0.1241
     22  CA        60.8560    9.4270   32.0440 C.3   139  TRP139      0.1605
     23  C         61.8080    8.7510   33.0540 C.2   139  TRP139      0.2264
     24  O         62.5710    9.4370   33.7290 O.2   139  TRP139     -0.2867
     25  CB        61.6300    9.9230   30.8210 C.3   139  TRP139      0.0550
     26  CG        60.7500   10.5020   29.6960 C.ar  139  TRP139      0.0003
     27  CD1       59.3820   10.4070   29.5760 C.ar  139  TRP139      0.0946
     28  CD2       61.1920   11.2170   28.5350 C.ar  139  TRP139      0.0152
     29  NE1       58.9540   11.0280   28.4370 N.ar  139  TRP139     -0.2442
     30  CE2       60.0440   11.5280   27.7720 C.ar  139  TRP139      0.0810
     31  CE3       62.4440   11.6270   28.0650 C.ar  139  TRP139      0.0012
     32  CZ2       60.1140   12.2320   26.5640 C.ar  139  TRP139      0.0191
     33  CZ3       62.5090   12.3450   26.8540 C.ar  139  TRP139      0.0001
     34  CH2       61.3580   12.6390   26.1290 C.ar  139  TRP139      0.0015
     35  N         65.5490    9.8660   33.1770 N.3   142  ASP142     -0.1239
     36  CA        65.9910   11.1020   33.8070 C.3   142  ASP142      0.1674
     37  C         66.3080   10.9290   35.2840 C.2   142  ASP142      0.2266
     38  O         66.7700   11.8400   35.9250 O.2   142  ASP142     -0.2867
     39  CB        64.9260   12.1800   33.6600 C.3   142  ASP142      0.1410
     40  CG        64.8900   12.7760   32.2780 C.2   142  ASP142      0.3668
     41  OD1       65.9310   13.2470   31.7670 O.co2 142  ASP142     -0.2456
     42  OD2       63.8110   12.7750   31.6870 O.co2 142  ASP142     -0.2456
     43  N         67.6610   16.9570   38.7650 N.3   147  TYR147     -0.1241
     44  CA        66.4310   17.6360   38.3560 C.3   147  TYR147      0.1605
     45  C         65.2020   16.7540   38.4400 C.2   147  TYR147      0.2264
     46  O         64.0920   17.2310   38.2150 O.2   147  TYR147     -0.2867
     47  CB        66.5700   18.2680   36.9720 C.3   147  TYR147      0.0534
     48  CG        66.9060   17.3290   35.8270 C.ar  147  TYR147     -0.0201
     49  CD1       65.9100   16.5670   35.2030 C.ar  147  TYR147     -0.0009
     50  CD2       68.2060   17.2320   35.3460 C.ar  147  TYR147     -0.0009
     51  CE1       66.2040   15.7070   34.1490 C.ar  147  TYR147      0.0417
     52  CE2       68.5110   16.3870   34.2890 C.ar  147  TYR147      0.0417
     53  CZ        67.5070   15.6180   33.7040 C.ar  147  TYR147      0.1957
     54  OH        67.8080   14.7830   32.6600 O.3   147  TYR147     -0.2866
     55  N         67.5050   29.4070   39.7330 N.3   297  PHE297     -0.1227
     56  CA        68.2530   28.2340   39.2850 C.3   297  PHE297      0.1736
     57  C         67.3470   27.1470   38.7630 C.2   297  PHE297      0.2596
     58  O         67.8090   26.1060   38.2630 O.2   297  PHE297     -0.2718
     59  CB        69.0560   27.6930   40.4590 C.3   297  PHE297      0.0547
     60  CG        70.1440   28.6290   40.9320 C.ar  297  PHE297     -0.0202
     61  CD1       71.1930   29.0050   40.0700 C.ar  297  PHE297     -0.0042
     62  CD2       70.1330   29.1230   42.2360 C.ar  297  PHE297     -0.0042
     63  CE1       72.1970   29.8520   40.4950 C.ar  297  PHE297     -0.0003
     64  CE2       71.1450   29.9790   42.6800 C.ar  297  PHE297     -0.0003
     65  CZ        72.1730   30.3460   41.8060 C.ar  297  PHE297     -0.0000
     66  N         66.0480   27.3980   38.9240 N.am  298  SER298     -0.1952
     67  CA        64.9650   26.5310   38.4860 C.3   298  SER298      0.1924
     68  C         64.9350   25.1960   39.2260 C.2   298  SER298      0.2314
     69  O         64.9960   24.1430   38.6090 O.2   298  SER298     -0.2863
     70  CB        65.0400   26.3450   36.9710 C.3   298  SER298      0.2116
     71  OG        63.7560   26.3650   36.3660 O.3   298  SER298     -0.2180
     72  N         63.6730   22.0520   40.4390 N.3   300  ASN300     -0.1240
     73  CA        62.5340   21.1570   40.2560 C.3   300  ASN300      0.1653
     74  C         61.9670   20.6050   41.5860 C.2   300  ASN300      0.2266
     75  O         60.7630   20.7260   41.8590 O.2   300  ASN300     -0.2867
     76  CB        62.9200   20.0080   39.3020 C.3   300  ASN300      0.1155
     77  CG        62.8020   20.3770   37.8040 C.2   300  ASN300      0.2627
     78  OD1       62.6430   21.5320   37.4200 O.2   300  ASN300     -0.2716
     79  ND2       62.8870   19.3630   36.9600 N.am  300  ASN300     -0.0877
     80  N         57.0350   21.8610   38.6410 N.3   347  SER347     -0.1202
     81  CA        58.3270   22.2450   38.0830 C.3   347  SER347      0.2020
     82  C         58.3980   22.4990   36.5880 C.2   347  SER347      0.2619
     83  O         59.2560   23.2530   36.1630 O.2   347  SER347     -0.2717
     84  CB        59.3570   21.1980   38.4440 C.3   347  SER347      0.2103
     85  OG        59.1220   20.0580   37.6490 O.3   347  SER347     -0.2182
     86  N         57.5230   21.8690   35.7890 N.am  348  GLY348     -0.1942
     87  CA        57.6060   21.9490   34.3130 C.3   348  GLY348      0.2014
     88  C         58.3390   20.7630   33.6700 C.2   348  GLY348      0.2638
     89  O         58.4190   20.6700   32.4660 O.2   348  GLY348     -0.2714
     90  N         58.8850   19.8570   34.4750 N.am  349  LEU349     -0.1977
     91  CA        59.4690   18.6030   33.9930 C.3   349  LEU349      0.1596
     92  C         58.5060   17.7780   33.0860 C.2   349  LEU349      0.2287
     93  O         58.9220   17.1870   32.0890 O.2   349  LEU349     -0.2864
     94  CB        59.9480   17.7540   35.2000 C.3   349  LEU349      0.0297
     95  CG        61.2850   17.0070   35.1990 C.3   349  LEU349      0.0022
     96  CD1       61.3920   15.8850   36.2600 C.3   349  LEU349      0.0001
     97  CD2       61.6520   16.4460   33.8440 C.3   349  LEU349      0.0001
     98  N         55.7900   16.2660   30.4880 N.3   351  ARG351     -0.1245
     99  CA        55.4120   16.5390   29.0990 C.3   351  ARG351      0.1563
    100  C         53.8860   16.6000   28.8940 C.2   351  ARG351      0.2260
    101  O         53.4020   16.5880   27.7500 O.2   351  ARG351     -0.2867
    102  CB        56.1120   15.5470   28.1560 C.3   351  ARG351      0.0307
    103  CG        57.6460   15.6800   28.2890 C.3   351  ARG351      0.0489
    104  CD        58.4650   15.0910   27.1580 C.3   351  ARG351      0.2205
    105  NE        58.6960   16.0830   26.1160 N.pl3 351  ARG351     -0.0865
    106  CZ        59.8840   16.5560   25.7350 C.cat 351  ARG351      0.5346
    107  NH1       61.0380   16.1420   26.2730 N.pl3 351  ARG351      0.1354
    108  NH2       59.9020   17.4530   24.7810 N.pl3 351  ARG351      0.1354
    109  N         70.0460   31.6430   35.7940 N.3   393  THR393     -0.1218
    110  CA        70.0610   30.9960   34.4810 C.3   393  THR393      0.1862
    111  C         70.2010   31.9580   33.3110 C.2   393  THR393      0.2287
    112  O         70.2210   31.5270   32.1610 O.2   393  THR393     -0.2866
    113  CB        68.8480   30.0550   34.2910 C.3   393  THR393      0.1770
    114  OG1       67.6190   30.7650   34.4940 O.3   393  THR393     -0.2211
    115  CG2       68.9270   28.8840   35.2840 C.3   393  THR393      0.0375
    116  N         63.4480   31.3270   32.4830 N.3   411  THR411     -0.1203
    117  CA        63.8440   30.3860   31.4280 C.3   411  THR411      0.1994
    118  C         63.2130   28.9820   31.6040 C.2   411  THR411      0.2618
    119  O         62.4020   28.7770   32.4630 O.2   411  THR411     -0.2717
    120  CB        65.3700   30.1160   31.5020 C.3   411  THR411      0.1784
    121  OG1       65.6500   29.4980   32.7570 O.3   411  THR411     -0.2211
    122  CG2       66.1850   31.3910   31.3660 C.3   411  THR411      0.0376
    123  N         63.6400   28.0270   30.7900 N.am  412  GLY412     -0.1942
    124  CA        63.1150   26.6660   30.8250 C.3   412  GLY412      0.2014
    125  C         63.3300   25.9890   29.4830 C.2   412  GLY412      0.2640
    126  O         62.7150   26.3780   28.4640 O.2   412  GLY412     -0.2714
    127  N         64.2310   25.0040   29.4890 N.am  413  THR413     -0.1936
    128  CA        64.6090   24.2270   28.2850 C.3   413  THR413      0.2028
    129  C         64.5640   22.7170   28.5210 C.2   413  THR413      0.2642
    130  O         65.0300   22.2320   29.5560 O.2   413  THR413     -0.2714
    131  CB        66.0490   24.6530   27.7300 C.3   413  THR413      0.1808
    132  OG1       65.9470   25.9070   27.0310 O.3   413  THR413     -0.2208
    133  CG2       66.6520   23.6110   26.7750 C.3   413  THR413      0.0379
    134  N         63.9780   22.0010   27.5610 N.am  414  MET414     -0.1962
    135  CA        64.2380   20.5720   27.3720 C.3   414  MET414      0.1736
    136  C         64.1310   20.2060   25.8780 C.2   414  MET414      0.2617
    137  O         63.9910   21.1040   25.0450 O.2   414  MET414     -0.2715
    138  CB        63.3430   19.7210   28.2610 C.3   414  MET414      0.0427
    139  CG        61.8350   20.0530   28.2280 C.3   414  MET414      0.0599
    140  SD        60.9940   19.0430   29.4840 S.3   414  MET414     -0.1393
    141  CE        59.3300   19.0280   28.8680 C.3   414  MET414      0.0692
    142  N         64.2340   18.9190   25.5250 N.am  415  SER415     -0.1950
    143  CA        64.1510   18.4720   24.1080 C.3   415  SER415      0.1924
    144  C         62.9970   19.0140   23.2900 C.2   415  SER415      0.2314
    145  O         61.8590   18.7010   23.5470 O.2   415  SER415     -0.2863
    146  CB        64.0660   16.9590   24.0460 C.3   415  SER415      0.2116
    147  OG        65.3520   16.4510   23.8820 O.3   415  SER415     -0.2180
@<TRIPOS>BOND
     1   144   145    2
     2   144   143    1
     3   147   146    1
     4   146   143    1
     5   143   142    1
     6   108   106    1
     7   137   136    2
     8   142   136   am
     9   106   105    2
    10   106   107    1
    11   136   135    1
    12   105   104    1
    13    34    32   ar
    14    34    33   ar
    15    32    30   ar
    16   133   131    1
    17    33    31   ar
    18   132   131    1
    19   104   103    1
    20   135   134    1
    21   135   138    1
    22   134   129   am
    23   131   128    1
    24   101   100    2
    25    30    29   ar
    26    30    28   ar
    27    31    28   ar
    28   102   103    1
    29   102    99    1
    30   139   138    1
    31   139   140    1
    32   128   129    1
    33   128   127    1
    34    29    27   ar
    35   126   125    2
    36   129   130    2
    37    28    26   ar
    38   141   140    1
    39   100    99    1
    40    99    98    1
    41   125   127   am
    42   125   124    1
    43     1     2    1
    44     5     2    1
    45    27    26   ar
    46    26    25    1
    47     2     3    1
    48   123   124    1
    49   123   118   am
    50    25    22    1
    51   122   120    1
    52   117   120    1
    53   117   118    1
    54   117   116    1
    55   120   121    1
    56   118   119    2
    57     3     6   am
    58     3     4    2
    59    42    40   ar
    60    41    40   ar
    61    22    21    1
    62    22    23    1
    63    93    92    2
    64     6     7    1
    65   112   111    2
    66    40    39    1
    67    89    88    2
    68    54    53    1
    69    23    24    2
    70    92    91    1
    71    35    36    1
    72   111   110    1
    73     7     8    1
    74     7    10    1
    75    39    36    1
    76    88    87    1
    77    88    90   am
    78     8     9    2
    79    53    51   ar
    80    53    52   ar
    81    36    37    1
    82    97    95    1
    83    91    90    1
    84    91    94    1
    85    10    11    1
    86    51    49   ar
    87    52    50   ar
    88   113   110    1
    89   113   114    1
    90   113   115    1
    91    87    86    1
    92   110   109    1
    93    95    94    1
    94    95    96    1
    95    49    48   ar
    96    37    38    2
    97    50    48   ar
    98    86    82   am
    99    48    47    1
   100    83    82    2
   101    71    70    1
   102    12    13    1
   103    82    81    1
   104    79    77   am
   105    70    67    1
   106    47    44    1
   107    78    77    2
   108    85    84    1
   109    20    19    1
   110    77    76    1
   111    13    16    1
   112    13    14    1
   113    16    17    1
   114    81    84    1
   115    81    80    1
   116    17    18    1
   117    46    45    2
   118    14    15    2
   119    58    57    2
   120    44    45    1
   121    44    43    1
   122    67    66    1
   123    67    68    1
   124    18    19    1
   125    69    68    2
   126    57    66   am
   127    57    56    1
   128    56    55    1
   129    56    59    1
   130    76    73    1
   131    61    63   ar
   132    61    60   ar
   133    73    72    1
   134    73    74    1
   135    59    60    1
   136    63    65   ar
   137    60    62   ar
   138    74    75    2
   139    65    64   ar
   140    62    64   ar
