@<TRIPOS>MOLECULE
tmp/2vgkB00.pdb
 122 118 0 0 0
SMALL
GASTEIGER

@<TRIPOS>ATOM
      1  N         59.7770   24.8920   32.5860 N.3    49  SER49      -0.1217
      2  CA        59.8540   25.5490   33.9070 C.3    49  SER49       0.1889
      3  C         59.1450   26.9150   34.0110 C.2    49  SER49       0.2288
      4  O         59.1790   27.5540   35.0690 O.2    49  SER49      -0.2866
      5  CB        61.3070   25.6540   34.4000 C.3    49  SER49       0.2089
      6  OG        61.9370   24.3820   34.4490 O.3    49  SER49      -0.2183
      7  N         59.6770   10.4260   32.8910 N.3   139  TRP139     -0.1241
      8  CA        60.4640    9.3660   32.2550 C.3   139  TRP139      0.1605
      9  C         61.3810    8.6630   33.2730 C.2   139  TRP139      0.2264
     10  O         62.1990    9.3250   33.9240 O.2   139  TRP139     -0.2867
     11  CB        61.2970    9.9240   31.0750 C.3   139  TRP139      0.0550
     12  CG        60.4950   10.4950   29.8970 C.ar  139  TRP139      0.0003
     13  CD1       59.1570   10.3360   29.6510 C.ar  139  TRP139      0.0946
     14  CD2       61.0070   11.2770   28.8010 C.ar  139  TRP139      0.0152
     15  NE1       58.8040   10.9860   28.4900 N.ar  139  TRP139     -0.2442
     16  CE2       59.9210   11.5650   27.9470 C.ar  139  TRP139      0.0810
     17  CE3       62.2810   11.7630   28.4620 C.ar  139  TRP139      0.0012
     18  CZ2       60.0660   12.3220   26.7760 C.ar  139  TRP139      0.0191
     19  CZ3       62.4270   12.5120   27.2940 C.ar  139  TRP139      0.0001
     20  CH2       61.3250   12.7830   26.4670 C.ar  139  TRP139      0.0015
     21  N         65.1150    9.5990   33.4280 N.3   142  ASP142     -0.1239
     22  CA        65.5590   10.8520   34.0690 C.3   142  ASP142      0.1674
     23  C         65.9470   10.6870   35.5430 C.2   142  ASP142      0.2266
     24  O         66.6140   11.5510   36.1140 O.2   142  ASP142     -0.2867
     25  CB        64.4520   11.9200   33.9940 C.3   142  ASP142      0.1410
     26  CG        64.2440   12.4720   32.5950 C.2   142  ASP142      0.3668
     27  OD1       65.1130   12.2950   31.7250 O.co2 142  ASP142     -0.2456
     28  OD2       63.2010   13.1050   32.3660 O.co2 142  ASP142     -0.2456
     29  N         69.4220   15.0410   39.5930 N.3   146  ALA146     -0.1231
     30  CA        68.8850   15.8680   40.6630 C.3   146  ALA146      0.1694
     31  C         67.5420   16.5590   40.3480 C.2   146  ALA146      0.2592
     32  O         66.7670   16.8790   41.2660 O.2   146  ALA146     -0.2718
     33  CB        69.9350   16.8950   41.0760 C.3   146  ALA146      0.0304
     34  N         67.2660   16.7930   39.0670 N.am  147  TYR147     -0.1976
     35  CA        66.0400   17.4860   38.6820 C.3   147  TYR147      0.1639
     36  C         64.8070   16.5840   38.7500 C.2   147  TYR147      0.2290
     37  O         63.6780   17.0690   38.6580 O.2   147  TYR147     -0.2864
     38  CB        66.1790   18.1700   37.3130 C.3   147  TYR147      0.0560
     39  CG        66.4910   17.2670   36.1360 C.ar  147  TYR147     -0.0198
     40  CD1       65.4800   16.5570   35.4890 C.ar  147  TYR147     -0.0009
     41  CD2       67.7930   17.1530   35.6460 C.ar  147  TYR147     -0.0009
     42  CE1       65.7530   15.7270   34.4110 C.ar  147  TYR147      0.0417
     43  CE2       68.0800   16.3270   34.5520 C.ar  147  TYR147      0.0417
     44  CZ        67.0550   15.6180   33.9410 C.ar  147  TYR147      0.1957
     45  OH        67.3210   14.7950   32.8610 O.3   147  TYR147     -0.2866
     46  N         67.2050   29.5980   40.1300 N.3   297  PHE297     -0.1227
     47  CA        67.9090   28.3870   39.6850 C.3   297  PHE297      0.1736
     48  C         66.9930   27.3020   39.1420 C.2   297  PHE297      0.2596
     49  O         67.4640   26.3300   38.5460 O.2   297  PHE297     -0.2718
     50  CB        68.7610   27.8070   40.8220 C.3   297  PHE297      0.0547
     51  CG        69.8400   28.7300   41.3060 C.ar  297  PHE297     -0.0202
     52  CD1       70.7880   29.2410   40.4220 C.ar  297  PHE297     -0.0042
     53  CD2       69.9120   29.0850   42.6480 C.ar  297  PHE297     -0.0042
     54  CE1       71.7820   30.1000   40.8720 C.ar  297  PHE297     -0.0003
     55  CE2       70.9010   29.9340   43.1060 C.ar  297  PHE297     -0.0003
     56  CZ        71.8420   30.4420   42.2160 C.ar  297  PHE297     -0.0000
     57  N         65.6910   27.4810   39.3580 N.am  298  SER298     -0.1938
     58  CA        64.6410   26.5770   38.8830 C.3   298  SER298      0.2055
     59  C         64.7330   25.2000   39.5650 C.2   298  SER298      0.2643
     60  O         65.2050   24.2280   38.9800 O.2   298  SER298     -0.2714
     61  CB        64.6900   26.4740   37.3560 C.3   298  SER298      0.2130
     62  OG        63.3960   26.4640   36.7800 O.3   298  SER298     -0.2179
     63  N         64.2950   25.1410   40.8170 N.am  299  ASN299     -0.1957
     64  CA        64.3650   23.9240   41.6100 C.3   299  ASN299      0.1819
     65  C         63.0890   23.0850   41.4940 C.2   299  ASN299      0.2621
     66  O         62.0370   23.4560   42.0150 O.2   299  ASN299     -0.2715
     67  CB        64.6580   24.2740   43.0710 C.3   299  ASN299      0.1195
     68  CG        65.1880   23.0940   43.8670 C.2   299  ASN299      0.2630
     69  OD1       66.3230   23.1100   44.3330 O.2   299  ASN299     -0.2716
     70  ND2       64.3710   22.0730   44.0280 N.am  299  ASN299     -0.0877
     71  N         63.1920   21.9430   40.8160 N.am  300  ASN300     -0.1972
     72  CA        62.0270   21.1070   40.5250 C.3   300  ASN300      0.1688
     73  C         61.3360   20.5250   41.7690 C.2   300  ASN300      0.2292
     74  O         60.1110   20.5620   41.8780 O.2   300  ASN300     -0.2864
     75  CB        62.4000   20.0040   39.5170 C.3   300  ASN300      0.1181
     76  CG        62.4390   20.4970   38.0630 C.2   300  ASN300      0.2629
     77  OD1       62.3070   21.6930   37.7690 O.2   300  ASN300     -0.2716
     78  ND2       62.6220   19.5580   37.1470 N.am  300  ASN300     -0.0877
     79  N         57.1240   21.8320   35.8350 N.3   348  GLY348     -0.1210
     80  CA        57.2080   21.8560   34.3830 C.3   348  GLY348      0.1956
     81  C         57.9650   20.6590   33.8360 C.2   348  GLY348      0.2611
     82  O         58.2910   20.6360   32.6590 O.2   348  GLY348     -0.2717
     83  N         58.2640   19.6720   34.6760 N.am  349  LEU349     -0.1979
     84  CA        58.9810   18.4810   34.2180 C.3   349  LEU349      0.1596
     85  C         58.0870   17.6550   33.3010 C.2   349  LEU349      0.2287
     86  O         58.5390   17.1790   32.2640 O.2   349  LEU349     -0.2864
     87  CB        59.4670   17.6070   35.3900 C.3   349  LEU349      0.0297
     88  CG        60.8650   16.9470   35.3790 C.3   349  LEU349      0.0022
     89  CD1       60.9290   15.7060   36.2600 C.3   349  LEU349      0.0001
     90  CD2       61.4090   16.6160   33.9920 C.3   349  LEU349      0.0001
     91  N         55.3010   16.1960   30.7070 N.3   351  ARG351     -0.1245
     92  CA        54.8780   16.5110   29.3490 C.3   351  ARG351      0.1563
     93  C         53.3550   16.5310   29.1550 C.2   351  ARG351      0.2260
     94  O         52.8600   16.5260   28.0240 O.2   351  ARG351     -0.2867
     95  CB        55.6030   15.6150   28.3430 C.3   351  ARG351      0.0307
     96  CG        56.7400   16.3570   27.6340 C.3   351  ARG351      0.0489
     97  CD        57.9760   15.5130   27.3790 C.3   351  ARG351      0.2205
     98  NE        58.8110   16.1670   26.3710 N.pl3 351  ARG351     -0.0865
     99  CZ        60.1330   16.2900   26.4320 C.cat 351  ARG351      0.5346
    100  NH1       60.8280   15.8190   27.4610 N.pl3 351  ARG351      0.1354
    101  NH2       60.7690   16.9010   25.4510 N.pl3 351  ARG351      0.1354
    102  N         63.7100   24.9970   29.5840 N.3   413  THR413     -0.1203
    103  CA        64.1750   24.2340   28.4130 C.3   413  THR413      0.1994
    104  C         64.2220   22.7070   28.6290 C.2   413  THR413      0.2618
    105  O         64.7520   22.2200   29.6260 O.2   413  THR413     -0.2717
    106  CB        65.5870   24.7430   27.9450 C.3   413  THR413      0.1784
    107  OG1       65.4690   26.0540   27.3690 O.3   413  THR413     -0.2211
    108  CG2       66.2170   23.8140   26.9170 C.3   413  THR413      0.0376
    109  N         63.6550   21.9720   27.6740 N.am  414  MET414     -0.1965
    110  CA        63.8950   20.5320   27.5030 C.3   414  MET414      0.1736
    111  C         63.7210   20.1630   26.0150 C.2   414  MET414      0.2617
    112  O         63.6690   21.0580   25.1730 O.2   414  MET414     -0.2715
    113  CB        63.0260   19.6890   28.4530 C.3   414  MET414      0.0427
    114  CG        61.5550   20.0990   28.5830 C.3   414  MET414      0.0599
    115  SD        60.6940   19.1200   29.8380 S.3   414  MET414     -0.1393
    116  CE        59.0030   19.2810   29.3100 C.3   414  MET414      0.0692
    117  N         63.6590   18.8730   25.6800 N.am  415  SER415     -0.1950
    118  CA        63.5790   18.4190   24.2680 C.3   415  SER415      0.1924
    119  C         62.4050   19.0060   23.4860 C.2   415  SER415      0.2314
    120  O         61.2580   18.6880   23.7520 O.2   415  SER415     -0.2863
    121  CB        63.4890   16.8890   24.1840 C.3   415  SER415      0.2116
    122  OG        64.7620   16.2920   24.1490 O.3   415  SER415     -0.2180
@<TRIPOS>BOND
     1   119   120    2
     2   119   118    1
     3   122   121    1
     4   121   118    1
     5   118   117    1
     6   112   111    2
     7   101    99    1
     8   117   111   am
     9   111   110    1
    10    98    99    2
    11    98    97    1
    12    99   100    1
    13    20    18   ar
    14    20    19   ar
    15    18    16   ar
    16   108   106    1
    17    19    17   ar
    18   107   106    1
    19    97    96    1
    20   110   109    1
    21   110   113    1
    22    96    95    1
    23   109   104   am
    24   106   103    1
    25    16    15   ar
    26    16    14   ar
    27    94    93    2
    28    95    92    1
    29   103   104    1
    30   103   102    1
    31   113   114    1
    32    17    14   ar
    33    15    13   ar
    34   114   115    1
    35   104   105    2
    36    14    12   ar
    37    93    92    1
    38   116   115    1
    39    92    91    1
    40    13    12   ar
    41    12    11    1
    42    11     8    1
    43    27    26   ar
    44     8     7    1
    45     8     9    1
    46    86    85    2
    47    28    26   ar
    48     1     2    1
    49    26    25    1
    50    82    81    2
    51    45    44    1
    52     9    10    2
    53    85    84    1
    54    21    22    1
    55    81    80    1
    56    81    83   am
    57     2     3    1
    58     2     5    1
    59    44    42   ar
    60    44    43   ar
    61    90    88    1
    62    25    22    1
    63     3     4    2
    64    22    23    1
    65    84    83    1
    66    84    87    1
    67    80    79    1
    68     5     6    1
    69    42    40   ar
    70    43    41   ar
    71    88    87    1
    72    88    89    1
    73    40    39   ar
    74    23    24    2
    75    41    39   ar
    76    39    38    1
    77    62    61    1
    78    78    76   am
    79    38    35    1
    80    61    58    1
    81    77    76    2
    82    76    75    1
    83    49    48    2
    84    37    36    2
    85    35    36    1
    86    35    34    1
    87    58    57    1
    88    58    59    1
    89    60    59    2
    90    34    31   am
    91    48    57   am
    92    48    47    1
    93    75    72    1
    94    59    63   am
    95    29    30    1
    96    47    46    1
    97    47    50    1
    98    31    30    1
    99    31    32    2
   100    52    54   ar
   101    52    51   ar
   102    72    71    1
   103    72    73    1
   104    30    33    1
   105    71    65   am
   106    63    64    1
   107    50    51    1
   108    54    56   ar
   109    51    53   ar
   110    65    64    1
   111    65    66    2
   112    64    67    1
   113    73    74    2
   114    56    55   ar
   115    53    55   ar
   116    67    68    1
   117    68    70   am
   118    68    69    2
