@<TRIPOS>MOLECULE
tmp/2vglA00.pdb
 107 100 0 0 0
SMALL
GASTEIGER

@<TRIPOS>ATOM
      1  N         98.9960   51.7080  -13.8630 N.3     3  ARG3       -0.1231
      2  CA        98.1580   52.9100  -14.0580 C.3     3  ARG3        0.1694
      3  C         96.7550   52.6310  -14.5820 C.2     3  ARG3        0.2592
      4  O         95.7830   53.2680  -14.1640 O.2     3  ARG3       -0.2718
      5  CB        98.8130   53.8300  -15.0680 C.3     3  ARG3        0.0321
      6  CG        97.8450   54.8130  -15.6610 C.3     3  ARG3        0.0489
      7  CD        98.5530   55.6510  -16.6340 C.3     3  ARG3        0.2205
      8  NE        98.6020   54.9890  -17.9300 N.pl3   3  ARG3       -0.0865
      9  CZ        99.5590   55.1800  -18.8230 C.cat   3  ARG3        0.5346
     10  NH1      100.5450   56.0340  -18.5740 N.pl3   3  ARG3        0.1354
     11  NH2       99.5190   54.5130  -19.9740 N.pl3   3  ARG3        0.1354
     12  N         96.6730   51.7310  -15.5530 N.am    4  GLY4       -0.1957
     13  CA        95.3920   51.2770  -16.0780 C.3     4  GLY4        0.1869
     14  C         94.5140   50.6940  -14.9920 C.2     4  GLY4        0.2309
     15  O         93.3220   50.9660  -14.9560 O.2     4  GLY4       -0.2863
     16  N         93.4190   53.7960  -12.5560 N.3     7  VAL7       -0.1245
     17  CA        92.3330   54.5150  -13.2470 C.3     7  VAL7        0.1561
     18  C         90.9680   53.7730  -13.2110 C.2     7  VAL7        0.2260
     19  O         89.9730   54.3250  -12.8010 O.2     7  VAL7       -0.2867
     20  CB        92.7870   54.8480  -14.7120 C.3     7  VAL7        0.0252
     21  CG1       91.5890   54.9010  -15.7080 C.3     7  VAL7        0.0019
     22  CG2       93.6050   56.1240  -14.7190 C.3     7  VAL7        0.0019
     23  N         80.5060   51.0920  -15.9630 N.3    24  ARG24      -0.1245
     24  CA        81.9650   51.0780  -16.0820 C.3    24  ARG24       0.1563
     25  C         82.5980   49.6570  -15.9970 C.2    24  ARG24       0.2260
     26  O         83.5650   49.3460  -16.7180 O.2    24  ARG24      -0.2867
     27  CB        82.5600   52.0050  -15.0630 C.3    24  ARG24       0.0307
     28  CG        83.9970   52.1670  -15.2070 C.3    24  ARG24       0.0489
     29  CD        84.4200   52.4560  -16.6240 C.3    24  ARG24       0.2205
     30  NE        85.7950   52.9450  -16.6330 N.pl3  24  ARG24      -0.0865
     31  CZ        86.8600   52.1890  -16.8360 C.cat  24  ARG24       0.5346
     32  NH1       86.7080   50.9040  -17.0870 N.pl3  24  ARG24       0.1354
     33  NH2       88.0900   52.7160  -16.7960 N.pl3  24  ARG24       0.1354
     34  N         84.6480   47.5880  -18.9620 N.3    28  GLU28      -0.1245
     35  CA        85.9540   46.9080  -18.7550 C.3    28  GLU28       0.1567
     36  C         85.9940   45.4730  -19.2200 C.2    28  GLU28       0.2260
     37  O         86.9650   45.0350  -19.8220 O.2    28  GLU28      -0.2867
     38  CB        86.4030   46.9220  -17.2930 C.3    28  GLU28       0.0388
     39  CG        87.4140   47.9750  -16.9310 C.3    28  GLU28       0.1160
     40  CD        88.5190   48.1380  -17.9330 C.2    28  GLU28       0.3649
     41  OE1       89.1590   47.1230  -18.2710 O.co2  28  GLU28      -0.2457
     42  OE2       88.7820   49.2820  -18.3570 O.co2  28  GLU28      -0.2457
     43  N         86.2990   45.4460  -22.9510 N.3    31  ASN31      -0.1240
     44  CA        87.6770   45.7000  -23.3190 C.3    31  ASN31       0.1653
     45  C         88.6080   44.4790  -23.1060 C.2    31  ASN31       0.2266
     46  O         89.4370   44.1590  -23.9620 O.2    31  ASN31      -0.2867
     47  CB        88.1750   46.9170  -22.5580 C.3    31  ASN31       0.1155
     48  CG        89.5540   47.3440  -22.9890 C.2    31  ASN31       0.2627
     49  OD1       89.9560   47.1290  -24.1420 O.2    31  ASN31      -0.2716
     50  ND2       90.2990   47.9430  -22.0690 N.am   31  ASN31      -0.0877
     51  N         90.7470   42.0280  -25.9530 N.3    35  LYS35      -0.1245
     52  CA        92.1830   42.0620  -25.9920 C.3    35  LYS35       0.1561
     53  C         92.6840   40.6610  -25.7770 C.2    35  LYS35       0.2260
     54  O         93.6880   40.2630  -26.3760 O.2    35  LYS35      -0.2867
     55  CB        92.6950   43.0810  -24.9740 C.3    35  LYS35       0.0271
     56  CG        92.3260   44.4980  -25.4180 C.3    35  LYS35       0.0035
     57  CD        92.5850   45.6110  -24.4430 C.3    35  LYS35       0.0206
     58  CE        92.6370   46.9370  -25.2100 C.3    35  LYS35       0.1093
     59  NZ        92.6620   48.1770  -24.3490 N.3    35  LYS35      -0.1314
     60  N        102.8380   42.7160  -19.2930 N.3    45  TYR45      -0.1227
     61  CA       102.3020   43.8190  -18.5070 C.3    45  TYR45       0.1736
     62  C        100.7740   43.9080  -18.6350 C.2    45  TYR45       0.2596
     63  O        100.0440   44.0780  -17.6580 O.2    45  TYR45      -0.2718
     64  CB       102.9450   45.1600  -18.8990 C.3    45  TYR45       0.0548
     65  CG       102.1600   46.3160  -18.3820 C.ar   45  TYR45      -0.0200
     66  CD1      102.4420   46.8840  -17.1530 C.ar   45  TYR45      -0.0009
     67  CD2      101.0580   46.7950  -19.0870 C.ar   45  TYR45      -0.0009
     68  CE1      101.6700   47.9530  -16.6420 C.ar   45  TYR45       0.0417
     69  CE2      100.2840   47.8610  -18.5920 C.ar   45  TYR45       0.0417
     70  CZ       100.5890   48.4230  -17.3690 C.ar   45  TYR45       0.1957
     71  OH        99.7980   49.4440  -16.8950 O.3    45  TYR45      -0.2866
     72  N        100.2930   43.7830  -19.8630 N.am   46  SER46      -0.1952
     73  CA        98.8790   43.8270  -20.1130 C.3    46  SER46       0.1924
     74  C         98.1450   42.5940  -19.5940 C.2    46  SER46       0.2314
     75  O         97.0830   42.7300  -19.0230 O.2    46  SER46      -0.2863
     76  CB        98.6210   44.0820  -21.5950 C.3    46  SER46       0.2116
     77  OG        98.8840   45.4440  -21.8530 O.3    46  SER46      -0.2180
     78  N         97.9600   43.2440  -15.8290 N.3    49  LYS49      -0.1231
     79  CA        96.9280   44.2350  -15.4670 C.3    49  LYS49       0.1693
     80  C         95.4860   43.7640  -15.7320 C.2    49  LYS49       0.2592
     81  O         94.6650   43.8330  -14.8640 O.2    49  LYS49      -0.2718
     82  CB        97.2720   45.5920  -16.0720 C.3    49  LYS49       0.0285
     83  CG        96.2490   46.3230  -16.8800 C.3    49  LYS49       0.0035
     84  CD        96.9900   47.0690  -18.0940 C.3    49  LYS49       0.0206
     85  CE        96.1480   48.1370  -18.8880 C.3    49  LYS49       0.1093
     86  NZ        96.9540   48.7700  -20.0070 N.3    49  LYS49      -0.1314
     87  N         95.2130   43.1760  -16.8790 N.am   50  TYR50      -0.1976
     88  CA        93.8660   42.7300  -17.1990 C.3    50  TYR50       0.1639
     89  C         93.4260   41.5780  -16.3540 C.2    50  TYR50       0.2290
     90  O         92.2820   41.5490  -15.9000 O.2    50  TYR50      -0.2864
     91  CB        93.7170   42.3960  -18.6960 C.3    50  TYR50       0.0560
     92  CG        93.8310   43.6400  -19.5560 C.ar   50  TYR50      -0.0198
     93  CD1       94.4670   43.6210  -20.7850 C.ar   50  TYR50      -0.0009
     94  CD2       93.3430   44.8430  -19.0990 C.ar   50  TYR50      -0.0009
     95  CE1       94.5760   44.7720  -21.5300 C.ar   50  TYR50       0.0417
     96  CE2       93.4480   45.9800  -19.8420 C.ar   50  TYR50       0.0417
     97  CZ        94.0470   45.9530  -21.0430 C.ar   50  TYR50       0.1957
     98  OH        94.1120   47.1450  -21.7140 O.3    50  TYR50      -0.2866
     99  N         92.5980   43.2450  -13.1960 N.3    53  LYS53      -0.1245
    100  CA        91.2950   43.9050  -13.2610 C.3    53  LYS53       0.1561
    101  C         90.1470   42.9040  -13.1080 C.2    53  LYS53       0.2260
    102  O         89.1590   43.1830  -12.4550 O.2    53  LYS53      -0.2867
    103  CB        91.1410   44.6540  -14.5620 C.3    53  LYS53       0.0271
    104  CG        92.1350   45.7930  -14.7680 C.3    53  LYS53       0.0035
    105  CD        91.4510   46.9710  -15.4450 C.3    53  LYS53       0.0206
    106  CE        92.2870   47.5860  -16.5930 C.3    53  LYS53       0.1093
    107  NZ        91.5780   48.7580  -17.2120 N.3    53  LYS53      -0.1314
@<TRIPOS>BOND
     1    54    53    2
     2    52    51    1
     3    52    53    1
     4    52    55    1
     5    56    55    1
     6    56    57    1
     7    58    57    1
     8    58    59    1
     9    49    48    2
    10    46    45    2
    11    44    45    1
    12    44    43    1
    13    44    47    1
    14    48    47    1
    15    48    50   am
    16    77    76    1
    17    98    97    1
    18    76    73    1
    19    95    97   ar
    20    95    93   ar
    21    97    96   ar
    22    93    92   ar
    23    73    72    1
    24    73    74    1
    25    86    85    1
    26    11     9    1
    27    72    62   am
    28    96    94   ar
    29    37    36    2
    30    74    75    2
    31    92    94   ar
    32    92    91    1
    33    60    61    1
    34    36    35    1
    35    67    69   ar
    36    67    65   ar
    37    34    35    1
    38    64    61    1
    39    64    65    1
    40    85    84    1
    41     9    10    1
    42     9     8    2
    43    35    38    1
    44    91    88    1
    45    62    61    1
    46    62    63    2
    47    69    70   ar
    48    65    66   ar
    49    42    40   ar
    50    41    40   ar
    51    84    83    1
    52    40    39    1
    53     8     7    1
    54    70    71    1
    55    70    68   ar
    56    38    39    1
    57   107   106    1
    58    88    87    1
    59    88    89    1
    60    66    68   ar
    61    32    31    1
    62    83    82    1
    63    87    80   am
    64    31    33    1
    65    31    30    2
    66    26    25    2
    67     7     6    1
    68    30    29    1
    69    29    28    1
    70   106   105    1
    71    89    90    2
    72    24    25    1
    73    24    23    1
    74    24    27    1
    75    13    12    1
    76    13    14    1
    77    82    79    1
    78    78    79    1
    79    80    79    1
    80    80    81    2
    81    21    20    1
    82     6     5    1
    83    12     3   am
    84   105   104    1
    85    28    27    1
    86     5     2    1
    87    14    15    2
    88   104   103    1
    89    22    20    1
    90    20    17    1
    91     3     4    2
    92     3     2    1
    93   103   100    1
    94     2     1    1
    95   100    99    1
    96   100   101    1
    97    17    18    1
    98    17    16    1
    99    18    19    2
   100   101   102    2
