@<TRIPOS>MOLECULE
tmp/2vgoA00.pdb
 147 139 0 0 0
SMALL
GASTEIGER

@<TRIPOS>ATOM
      1  N         15.9700    5.1090   -4.9540 N.3    11  ARG11      -0.1245
      2  CA        15.1870    3.9710   -5.4340 C.3    11  ARG11       0.1563
      3  C         13.8650    3.8870   -4.6700 C.2    11  ARG11       0.2260
      4  O         13.7750    4.3970   -3.5500 O.2    11  ARG11      -0.2867
      5  CB        15.9820    2.6610   -5.2850 C.3    11  ARG11       0.0307
      6  CG        16.3790    2.3110   -3.8570 C.3    11  ARG11       0.0489
      7  CD        17.3000    1.1060   -3.8110 C.3    11  ARG11       0.2205
      8  NE        17.4690    0.6400   -2.4380 N.pl3  11  ARG11      -0.0865
      9  CZ        18.3320   -0.2960   -2.0570 C.cat  11  ARG11       0.5346
     10  NH1       19.1250   -0.8820   -2.9490 N.pl3  11  ARG11       0.1354
     11  NH2       18.4010   -0.6460   -0.7780 N.pl3  11  ARG11       0.1354
     12  N         11.1610    2.2300   -2.2800 N.3    13  LEU13      -0.1231
     13  CA        11.1890    1.2810   -1.1690 C.3    13  LEU13       0.1693
     14  C          9.8700    0.5350   -1.0520 C.2    13  LEU13       0.2593
     15  O          9.8360   -0.6140   -0.6120 O.2    13  LEU13      -0.2718
     16  CB        11.4970    1.9920    0.1520 C.3    13  LEU13       0.0284
     17  CG        12.9180    2.5230    0.3450 C.3    13  LEU13       0.0019
     18  CD1       12.9990    3.4030    1.5850 C.3    13  LEU13       0.0001
     19  CD2       13.9320    1.3730    0.4120 C.3    13  LEU13       0.0001
     20  N          8.7850    1.1920   -1.4440 N.am   14  GLY14      -0.1942
     21  CA         7.4610    0.6010   -1.3190 C.3    14  GLY14       0.2014
     22  C          6.3860    1.3510   -2.0690 C.2    14  GLY14       0.2638
     23  O          6.5580    2.5150   -2.4360 O.2    14  GLY14      -0.2714
     24  N          5.2690    0.6660   -2.2880 N.am   15  LYS15      -0.1977
     25  CA         4.1680    1.1920   -3.0860 C.3    15  LYS15       0.1596
     26  C          2.8760    1.1810   -2.2830 C.2    15  LYS15       0.2287
     27  O          2.5740    0.2090   -1.5890 O.2    15  LYS15      -0.2864
     28  CB         4.0040    0.3920   -4.3930 C.3    15  LYS15       0.0298
     29  CG         3.9330   -1.1340   -4.2300 C.3    15  LYS15       0.0038
     30  CD         5.3210   -1.7790   -4.2070 C.3    15  LYS15       0.0206
     31  CE         5.3860   -2.9390   -3.2190 C.3    15  LYS15       0.1093
     32  NZ         5.3070   -2.4810   -1.7980 N.3    15  LYS15      -0.1314
     33  N          7.0090    5.3510   -1.3950 N.3    21  VAL21      -0.1245
     34  CA         8.1290    5.6940   -0.5180 C.3    21  VAL21       0.1561
     35  C          9.4370    5.4410   -1.2660 C.2    21  VAL21       0.2260
     36  O          9.5870    4.4110   -1.9250 O.2    21  VAL21      -0.2867
     37  CB         8.1120    4.8840    0.8060 C.3    21  VAL21       0.0252
     38  CG1        9.2010    5.3840    1.7510 C.3    21  VAL21       0.0019
     39  CG2        6.7520    4.9880    1.4910 C.3    21  VAL21       0.0019
     40  N         14.0280    8.4380    4.1700 N.3    34  ALA34      -0.1245
     41  CA        12.9770    7.9840    3.2840 C.3    34  ALA34       0.1562
     42  C         12.0420    9.1480    2.9980 C.2    34  ALA34       0.2260
     43  O         11.7760    9.9790    3.8740 O.2    34  ALA34      -0.2867
     44  CB        12.2240    6.8150    3.9040 C.3    34  ALA34       0.0290
     45  N          8.2180    9.8170    1.7140 N.3    36  LYS36      -0.1245
     46  CA         6.8930    9.3170    1.3680 C.3    36  LYS36       0.1561
     47  C          6.1930   10.3920    0.5520 C.2    36  LYS36       0.2260
     48  O          6.0620   11.5310    0.9980 O.2    36  LYS36      -0.2867
     49  CB         6.0810    8.9780    2.6160 C.3    36  LYS36       0.0271
     50  CG         4.7600    8.2820    2.3150 C.3    36  LYS36       0.0035
     51  CD         4.0990    7.8120    3.6000 C.3    36  LYS36       0.0206
     52  CE         3.2340    6.5920    3.3820 C.3    36  LYS36       0.1093
     53  NZ         2.8920    5.9680    4.6970 N.3    36  LYS36      -0.1314
     54  N          9.5190    5.4900   14.4810 N.3    68  LEU68      -0.1245
     55  CA        10.0680    6.0470   13.2560 C.3    68  LEU68       0.1561
     56  C          9.9000    7.5690   13.2590 C.2    68  LEU68       0.2260
     57  O          8.7850    8.0820   13.4050 O.2    68  LEU68      -0.2867
     58  CB         9.3740    5.4280   12.0420 C.3    68  LEU68       0.0270
     59  CG        10.1620    5.5140   10.7360 C.3    68  LEU68       0.0019
     60  CD1       11.2950    4.4930   10.7310 C.3    68  LEU68       0.0001
     61  CD2        9.2310    5.2930    9.5520 C.3    68  LEU68       0.0001
     62  N         11.0770   11.0300    6.3510 N.3    84  LEU84      -0.1231
     63  CA        10.9890    9.9720    7.3610 C.3    84  LEU84       0.1693
     64  C         12.3410    9.3370    7.6210 C.2    84  LEU84       0.2592
     65  O         13.1770    9.2350    6.7310 O.2    84  LEU84      -0.2718
     66  CB        10.0090    8.8820    6.9040 C.3    84  LEU84       0.0284
     67  CG         8.5490    9.2940    6.6440 C.3    84  LEU84       0.0019
     68  CD1        7.7570    8.1330    6.0860 C.3    84  LEU84       0.0001
     69  CD2        7.8920    9.8350    7.9080 C.3    84  LEU84       0.0001
     70  N         12.5330    8.8780    8.8500 N.am   85  GLU85      -0.1966
     71  CA        13.6880    8.0610    9.1810 C.3    85  GLU85       0.1733
     72  C         13.7040    6.8040    8.3070 C.2    85  GLU85       0.2616
     73  O         12.6810    6.1440    8.1630 O.2    85  GLU85      -0.2715
     74  CB        13.5940    7.6820   10.6590 C.3    85  GLU85       0.0429
     75  CG        14.7000    6.7670   11.1550 C.3    85  GLU85       0.1163
     76  CD        14.5000    6.3530   12.6030 C.2    85  GLU85       0.3649
     77  OE1       15.2850    5.5020   13.0860 O.co2  85  GLU85      -0.2457
     78  OE2       13.5630    6.8730   13.2520 O.co2  85  GLU85      -0.2457
     79  N         14.8560    6.4930    7.7100 N.am   86  PHE86      -0.1960
     80  CA        15.0290    5.2610    6.9460 C.3    86  PHE86       0.1771
     81  C         15.3140    4.0970    7.8960 C.2    86  PHE86       0.2619
     82  O         16.1750    4.2040    8.7610 O.2    86  PHE86      -0.2715
     83  CB        16.1620    5.4280    5.9140 C.3    86  PHE86       0.0574
     84  CG        16.5140    4.1680    5.1620 C.ar   86  PHE86      -0.0200
     85  CD1       15.5430    3.4370    4.4730 C.ar   86  PHE86      -0.0042
     86  CD2       17.8370    3.7380    5.1040 C.ar   86  PHE86      -0.0042
     87  CE1       15.8860    2.2780    3.7610 C.ar   86  PHE86      -0.0003
     88  CE2       18.1870    2.5830    4.3990 C.ar   86  PHE86      -0.0003
     89  CZ        17.2090    1.8570    3.7210 C.ar   86  PHE86      -0.0000
     90  N         14.5650    3.0090    7.7320 N.am   87  ALA87      -0.1964
     91  CA        14.7320    1.7980    8.5340 C.3    87  ALA87       0.1713
     92  C         15.4690    0.7560    7.6960 C.2    87  ALA87       0.2458
     93  O         14.8630    0.0610    6.8820 O.2    87  ALA87      -0.2730
     94  CB        13.3620    1.2760    8.9940 C.3    87  ALA87       0.0333
     95  N         16.8020    0.6700    7.8690 N.am   88  PRO88      -0.2716
     96  CA        17.6520   -0.1100    6.9540 C.3    88  PRO88       0.1536
     97  C         17.3530   -1.6040    6.8610 C.2    88  PRO88       0.2598
     98  O         17.6200   -2.2100    5.8200 O.2    88  PRO88      -0.2715
     99  CB        19.0640    0.1090    7.5080 C.3    88  PRO88       0.0310
    100  CG        18.9690    1.3220    8.3510 C.3    88  PRO88       0.0237
    101  CD        17.5930    1.3170    8.9270 C.3    88  PRO88       0.0939
    102  N         16.8130   -2.2020    7.9230 N.am   89  ARG89      -0.1964
    103  CA        16.5300   -3.6340    7.8920 C.3    89  ARG89       0.1729
    104  C         15.0950   -3.9600    7.4480 C.2    89  ARG89       0.2617
    105  O         14.7020   -5.1310    7.3730 O.2    89  ARG89      -0.2715
    106  CB        16.8900   -4.2990    9.2280 C.3    89  ARG89       0.0348
    107  CG        18.3930   -4.4180    9.4480 C.3    89  ARG89       0.0492
    108  CD        18.6920   -5.3460   10.6080 C.3    89  ARG89       0.2205
    109  NE        20.0990   -5.3120   11.0030 N.pl3  89  ARG89      -0.0865
    110  CZ        20.6390   -6.1030   11.9280 C.cat  89  ARG89       0.5346
    111  NH1       19.8980   -7.0110   12.5600 N.pl3  89  ARG89       0.1354
    112  NH2       21.9280   -5.9940   12.2200 N.pl3  89  ARG89       0.1354
    113  N         14.3290   -2.9130    7.1560 N.am   90  GLY90      -0.1940
    114  CA        13.0330   -3.0470    6.4920 C.3    90  GLY90       0.2014
    115  C         11.8860   -3.5490    7.3400 C.2    90  GLY90       0.2638
    116  O         11.8200   -3.2760    8.5310 O.2    90  GLY90      -0.2714
    117  N         10.9830   -4.2900    6.7010 N.am   91  GLU91      -0.1977
    118  CA         9.7410   -4.7550    7.3290 C.3    91  GLU91       0.1602
    119  C          9.9670   -5.8670    8.3440 C.2    91  GLU91       0.2287
    120  O         10.6160   -6.8780    8.0500 O.2    91  GLU91      -0.2864
    121  CB         8.7430   -5.2410    6.2700 C.3    91  GLU91       0.0415
    122  CG         8.3260   -4.1980    5.2370 C.3    91  GLU91       0.1163
    123  CD         7.4110   -3.1070    5.7850 C.2    91  GLU91       0.3649
    124  OE1        6.7760   -3.2860    6.8490 O.co2  91  GLU91      -0.2457
    125  OE2        7.3210   -2.0530    5.1280 O.co2  91  GLU91      -0.2457
    126  N          3.1330   -5.9470   10.8180 N.3   134  GLU134     -0.1245
    127  CA         3.0780   -5.1580    9.5800 C.3   134  GLU134      0.1567
    128  C          3.2510   -3.6460    9.7890 C.2   134  GLU134      0.2260
    129  O          3.5690   -2.9130    8.8360 O.2   134  GLU134     -0.2867
    130  CB         1.7580   -5.4310    8.8440 C.3   134  GLU134      0.0388
    131  CG         1.6680   -6.7900    8.1820 C.3   134  GLU134      0.1160
    132  CD         1.2330   -7.9240    9.1090 C.2   134  GLU134      0.3649
    133  OE1        1.1150   -7.7320   10.3430 O.co2 134  GLU134     -0.2457
    134  OE2        1.0170   -9.0390    8.5780 O.co2 134  GLU134     -0.2457
    135  N          8.8990   -1.5520   11.6380 N.3   137  LEU137     -0.1245
    136  CA        10.0860   -1.6370   10.8030 C.3   137  LEU137      0.1561
    137  C         11.2890   -1.9100   11.6880 C.2   137  LEU137      0.2260
    138  O         11.1610   -1.9510   12.9100 O.2   137  LEU137     -0.2867
    139  CB        10.2820   -0.3400   10.0170 C.3   137  LEU137      0.0270
    140  CG         9.1780    0.0420    9.0190 C.3   137  LEU137      0.0019
    141  CD1        9.5260    1.3560    8.3520 C.3   137  LEU137      0.0001
    142  CD2        8.9500   -1.0210    7.9670 C.3   137  LEU137      0.0001
    143  N          6.0870    2.2900   12.9200 N.3   147  ALA147     -0.1245
    144  CA         6.2310    3.0050   11.6500 C.3   147  ALA147      0.1562
    145  C          4.9690    3.6880   11.1530 C.2   147  ALA147      0.2260
    146  O          5.0490    4.6560   10.3920 O.2   147  ALA147     -0.2867
    147  CB         6.7670    2.0680   10.5930 C.3   147  ALA147      0.0290
@<TRIPOS>BOND
     1     2     5    1
     2     2     1    1
     3     2     3    1
     4     5     6    1
     5     3     4    2
     6    28    29    1
     7    28    25    1
     8    29    30    1
     9    30    31    1
    10     6     7    1
    11     7     8    1
    12    31    32    1
    13    25    24    1
    14    25    26    1
    15    10     9    1
    16     8     9    2
    17    23    22    2
    18    24    22   am
    19    26    27    2
    20    12    13    1
    21    22    21    1
    22     9    11    1
    23    36    35    2
    24    20    21    1
    25    20    14   am
    26    33    34    1
    27    35    34    1
    28    13    14    1
    29    13    16    1
    30    14    15    2
    31    34    37    1
    32    16    17    1
    33    17    19    1
    34    17    18    1
    35    47    48    2
    36    47    46    1
    37    37    39    1
    38    37    38    1
    39    46    45    1
    40    46    49    1
    41    50    49    1
    42    50    51    1
    43    42    41    1
    44    42    43    2
    45    41    44    1
    46    41    40    1
    47    52    51    1
    48    52    53    1
    49    89    87   ar
    50    89    88   ar
    51    87    85   ar
    52    88    86   ar
    53    85    84   ar
    54    86    84   ar
    55   125   123   ar
    56    84    83    1
    57   122   123    1
    58   122   121    1
    59   123   124   ar
    60    98    97    2
    61    83    80    1
    62    68    67    1
    63   121   118    1
    64    62    63    1
    65   114   113    1
    66   114   115    1
    67    67    66    1
    68    67    69    1
    69   117   118    1
    70   117   115   am
    71    65    64    2
    72    97    96    1
    73    97   102   am
    74    93    92    2
    75    66    63    1
    76    80    79    1
    77    80    81    1
    78    96    99    1
    79    96    95    1
    80   113   104   am
    81   118   119    1
    82   115   116    2
    83    63    64    1
    84   105   104    2
    85   104   103    1
    86    99   100    1
    87    64    70   am
    88    92    95   am
    89    92    91    1
    90    79    72   am
    91    90    81   am
    92    90    91    1
    93    95   101    1
    94   103   102    1
    95   103   106    1
    96    81    82    2
    97   142   140    1
    98   120   119    2
    99    73    72    2
   100   131   130    1
   101   131   132    1
   102    72    71    1
   103   100   101    1
   104   141   140    1
   105    91    94    1
   106   134   132   ar
   107   129   128    2
   108   130   127    1
   109    70    71    1
   110   140   139    1
   111   132   133   ar
   112    71    74    1
   113   106   107    1
   114   107   108    1
   115    61    59    1
   116   127   128    1
   117   127   126    1
   118   139   136    1
   119   146   145    2
   120   147   144    1
   121   108   109    1
   122    74    75    1
   123    60    59    1
   124    59    58    1
   125   136   135    1
   126   136   137    1
   127   109   110    2
   128   145   144    1
   129    75    76    1
   130   144   143    1
   131   137   138    2
   132   110   112    1
   133   110   111    1
   134    58    55    1
   135    76    77   ar
   136    76    78   ar
   137    55    56    1
   138    55    54    1
   139    56    57    2
