@<TRIPOS>MOLECULE
tmp/2vgpA00.pdb
 136 131 0 0 0
SMALL
GASTEIGER

@<TRIPOS>ATOM
      1  N         16.0220    4.9830   -4.9310 N.3    10  ARG10      -0.1231
      2  CA        15.2290    3.8540   -5.4220 C.3    10  ARG10       0.1679
      3  C         13.9340    3.7180   -4.6170 C.2    10  ARG10       0.2434
      4  O         13.8820    4.1550   -3.4640 O.2    10  ARG10      -0.2733
      5  CB        16.0350    2.5460   -5.3520 C.3    10  ARG10       0.0321
      6  CG        16.4660    2.1260   -3.9520 C.3    10  ARG10       0.0489
      7  CD        17.4440    0.9670   -4.0110 C.3    10  ARG10       0.2205
      8  NE        17.6890    0.4000   -2.6880 N.pl3  10  ARG10      -0.0865
      9  CZ        18.6410   -0.4890   -2.4160 C.cat  10  ARG10       0.5346
     10  NH1       19.4590   -0.9160   -3.3740 N.pl3  10  ARG10       0.1354
     11  NH2       18.7820   -0.9460   -1.1770 N.pl3  10  ARG10       0.1354
     12  N         12.8810    3.1270   -5.2230 N.am   11  PRO11      -0.2718
     13  CA        11.6620    2.8370   -4.4640 C.3    11  PRO11       0.1535
     14  C         11.8900    1.7730   -3.3820 C.2    11  PRO11       0.2598
     15  O         12.5860    0.7830   -3.6190 O.2    11  PRO11      -0.2715
     16  CB        10.6900    2.3230   -5.5330 C.3    11  PRO11       0.0310
     17  CG        11.5640    1.8310   -6.6420 C.3    11  PRO11       0.0237
     18  CD        12.7630    2.7200   -6.6380 C.3    11  PRO11       0.0939
     19  N         11.3130    1.9930   -2.2030 N.am   12  LEU12      -0.1978
     20  CA        11.4150    1.0460   -1.0920 C.3    12  LEU12       0.1596
     21  C         10.1400    0.2270   -0.9520 C.2    12  LEU12       0.2287
     22  O         10.1840   -0.9580   -0.6110 O.2    12  LEU12      -0.2864
     23  CB        11.7000    1.7780    0.2210 C.3    12  LEU12       0.0297
     24  CG        13.0740    2.4270    0.3740 C.3    12  LEU12       0.0022
     25  CD1       13.1310    3.2380    1.6530 C.3    12  LEU12       0.0001
     26  CD2       14.1810    1.3720    0.3440 C.3    12  LEU12       0.0001
     27  N          5.7660    0.1760   -2.5250 N.3    14  LYS14      -0.1245
     28  CA         4.6690    0.6950   -3.3280 C.3    14  LYS14       0.1561
     29  C          3.4050    0.7240   -2.4770 C.2    14  LYS14       0.2260
     30  O          2.9870   -0.3080   -1.9470 O.2    14  LYS14      -0.2867
     31  CB         4.4510   -0.1730   -4.5770 C.3    14  LYS14       0.0271
     32  CG         5.2190    0.2700   -5.8310 C.3    14  LYS14       0.0035
     33  CD         6.3820   -0.6610   -6.1960 C.3    14  LYS14       0.0206
     34  CE         7.7400   -0.1220   -5.7430 C.3    14  LYS14       0.1093
     35  NZ         8.1660   -0.6540   -4.4190 N.3    14  LYS14      -0.1314
     36  N          7.1300    5.0250   -1.3520 N.3    17  VAL17      -0.1245
     37  CA         8.2360    5.4200   -0.4680 C.3    17  VAL17       0.1561
     38  C          9.5600    5.2160   -1.2080 C.2    17  VAL17       0.2260
     39  O          9.7610    4.1820   -1.8450 O.2    17  VAL17      -0.2867
     40  CB         8.2420    4.6090    0.8610 C.3    17  VAL17       0.0252
     41  CG1        9.3160    5.1230    1.8100 C.3    17  VAL17       0.0019
     42  CG2        6.8730    4.6700    1.5450 C.3    17  VAL17       0.0019
     43  N         14.0560    8.2230    4.2570 N.3    30  ALA30      -0.1245
     44  CA        12.9900    7.7580    3.3860 C.3    30  ALA30       0.1562
     45  C         12.0670    8.9250    3.0470 C.2    30  ALA30       0.2260
     46  O         11.8120    9.7890    3.8880 O.2    30  ALA30      -0.2867
     47  CB        12.2130    6.6140    4.0440 C.3    30  ALA30       0.0290
     48  N          9.5420    5.4020   14.5860 N.3    64  LEU64      -0.1245
     49  CA        10.0860    5.9380   13.3480 C.3    64  LEU64       0.1561
     50  C          9.8940    7.4640   13.3290 C.2    64  LEU64       0.2260
     51  O          8.7820    7.9670   13.5060 O.2    64  LEU64      -0.2867
     52  CB         9.4300    5.2750   12.1340 C.3    64  LEU64       0.0270
     53  CG        10.1990    5.4810   10.8240 C.3    64  LEU64       0.0019
     54  CD1       11.3850    4.5210   10.7660 C.3    64  LEU64       0.0001
     55  CD2        9.3050    5.2690    9.6070 C.3    64  LEU64       0.0001
     56  N         11.0970   10.9320    6.4140 N.3    80  LEU80      -0.1231
     57  CA        11.0410    9.8960    7.4520 C.3    80  LEU80       0.1693
     58  C         12.4160    9.2850    7.7010 C.2    80  LEU80       0.2592
     59  O         13.2330    9.1760    6.7920 O.2    80  LEU80      -0.2718
     60  CB        10.0710    8.7850    7.0320 C.3    80  LEU80       0.0284
     61  CG         8.5860    9.1520    6.8820 C.3    80  LEU80       0.0019
     62  CD1        7.8790    8.1330    6.0090 C.3    80  LEU80       0.0001
     63  CD2        7.9230    9.2560    8.2640 C.3    80  LEU80       0.0001
     64  N         12.6540    8.8770    8.9430 N.am   81  GLU81      -0.1966
     65  CA        13.7900    8.0240    9.2720 C.3    81  GLU81       0.1733
     66  C         13.8230    6.7680    8.3830 C.2    81  GLU81       0.2616
     67  O         12.8030    6.0990    8.2000 O.2    81  GLU81      -0.2715
     68  CB        13.6820    7.6220   10.7470 C.3    81  GLU81       0.0429
     69  CG        14.7790    6.7000   11.2380 C.3    81  GLU81       0.1163
     70  CD        14.5940    6.3150   12.6950 C.2    81  GLU81       0.3649
     71  OE1       15.4130    5.5080   13.1910 O.co2  81  GLU81      -0.2457
     72  OE2       13.6400    6.8160   13.3430 O.co2  81  GLU81      -0.2457
     73  N         14.9920    6.4600    7.8230 N.am   82  PHE82      -0.1960
     74  CA        15.1870    5.2140    7.0850 C.3    82  PHE82       0.1771
     75  C         15.5150    4.0640    8.0510 C.2    82  PHE82       0.2619
     76  O         16.4820    4.1420    8.8170 O.2    82  PHE82      -0.2715
     77  CB        16.3030    5.3690    6.0370 C.3    82  PHE82       0.0574
     78  CG        16.6200    4.1000    5.2680 C.ar   82  PHE82      -0.0200
     79  CD1       15.6330    3.4260    4.5490 C.ar   82  PHE82      -0.0042
     80  CD2       17.9260    3.6040    5.2320 C.ar   82  PHE82      -0.0042
     81  CE1       15.9350    2.2580    3.8250 C.ar   82  PHE82      -0.0003
     82  CE2       18.2360    2.4440    4.5130 C.ar   82  PHE82      -0.0003
     83  CZ        17.2410    1.7710    3.8080 C.ar   82  PHE82      -0.0000
     84  N         14.6940    3.0200    8.0050 N.am   83  ALA83      -0.1964
     85  CA        14.9160    1.8070    8.7910 C.3    83  ALA83       0.1713
     86  C         15.5910    0.7750    7.8890 C.2    83  ALA83       0.2458
     87  O         14.9300    0.1240    7.0810 O.2    83  ALA83      -0.2730
     88  CB        13.5890    1.2890    9.3440 C.3    83  ALA83       0.0333
     89  N         16.9310    0.6430    7.9990 N.am   84  PRO84      -0.2716
     90  CA        17.6670   -0.1340    6.9840 C.3    84  PRO84       0.1536
     91  C         17.3670   -1.6270    6.9010 C.2    84  PRO84       0.2598
     92  O         17.5590   -2.2320    5.8400 O.2    84  PRO84      -0.2715
     93  CB        19.1420    0.1150    7.3250 C.3    84  PRO84       0.0310
     94  CG        19.1640    0.6960    8.6750 C.3    84  PRO84       0.0237
     95  CD        17.8120    1.2180    9.0310 C.3    84  PRO84       0.0939
     96  N         16.8940   -2.2220    7.9940 N.am   85  ARG85      -0.1964
     97  CA        16.5810   -3.6380    7.9740 C.3    85  ARG85       0.1729
     98  C         15.1340   -3.9320    7.5320 C.2    85  ARG85       0.2617
     99  O         14.7300   -5.0920    7.4350 O.2    85  ARG85      -0.2715
    100  CB        16.9330   -4.2890    9.3170 C.3    85  ARG85       0.0348
    101  CG        18.4420   -4.3870    9.5620 C.3    85  ARG85       0.0492
    102  CD        18.7390   -5.4180   10.6380 C.3    85  ARG85       0.2205
    103  NE        20.0960   -5.3220   11.1750 N.pl3  85  ARG85      -0.0865
    104  CZ        20.6130   -6.1710   12.0660 C.cat  85  ARG85       0.5346
    105  NH1       19.8980   -7.1950   12.5200 N.pl3  85  ARG85       0.1354
    106  NH2       21.8550   -6.0050   12.4990 N.pl3  85  ARG85       0.1354
    107  N         14.3740   -2.8760    7.2570 N.am   86  GLY86      -0.1940
    108  CA        13.0580   -3.0060    6.6350 C.3    86  GLY86       0.2014
    109  C         11.9560   -3.5870    7.5070 C.2    86  GLY86       0.2638
    110  O         11.9190   -3.3670    8.7260 O.2    86  GLY86      -0.2714
    111  N         11.0620   -4.3330    6.8620 N.am   87  GLU87      -0.1977
    112  CA         9.7900   -4.7560    7.4590 C.3    87  GLU87       0.1602
    113  C          9.9590   -5.9160    8.4360 C.2    87  GLU87       0.2287
    114  O         10.4920   -6.9700    8.0800 O.2    87  GLU87      -0.2864
    115  CB         8.7820   -5.1540    6.3660 C.3    87  GLU87       0.0415
    116  CG         8.4300   -4.0530    5.3600 C.3    87  GLU87       0.1163
    117  CD         7.4910   -2.9790    5.9020 C.2    87  GLU87       0.3649
    118  OE1        6.8490   -3.1790    6.9620 O.co2  87  GLU87      -0.2457
    119  OE2        7.3900   -1.9160    5.2490 O.co2  87  GLU87      -0.2457
    120  N          8.1640   -9.2390    7.3380 N.3    90  LYS90      -0.1245
    121  CA         8.9150  -10.0250    6.3530 C.3    90  LYS90       0.1561
    122  C          9.9410  -10.9180    7.0360 C.2    90  LYS90       0.2260
    123  O         10.1490  -12.0610    6.6220 O.2    90  LYS90      -0.2867
    124  CB         9.6200   -9.1260    5.3390 C.3    90  LYS90       0.0271
    125  CG         8.7250   -8.5790    4.2410 C.3    90  LYS90       0.0035
    126  CD         9.5500   -7.8470    3.1940 C.3    90  LYS90       0.0206
    127  CE         8.6670   -7.0870    2.2200 C.3    90  LYS90       0.1093
    128  NZ         9.3580   -5.8610    1.7130 N.3    90  LYS90      -0.1314
    129  N          8.9650   -1.5340   11.7430 N.3   133  LEU133     -0.1245
    130  CA        10.1760   -1.6220   10.9250 C.3   133  LEU133      0.1561
    131  C         11.3810   -1.9540   11.8150 C.2   133  LEU133      0.2260
    132  O         11.2580   -2.0170   13.0490 O.2   133  LEU133     -0.2867
    133  CB        10.3940   -0.3290   10.1260 C.3   133  LEU133      0.0270
    134  CG         9.3670    0.0160    9.0290 C.3   133  LEU133      0.0019
    135  CD1        9.5220    1.4480    8.5550 C.3   133  LEU133      0.0001
    136  CD2        9.4700   -0.9250    7.8450 C.3   133  LEU133      0.0001
@<TRIPOS>BOND
     1    17    18    1
     2    17    16    1
     3    18    12    1
     4    33    32    1
     5    33    34    1
     6    32    31    1
     7    34    35    1
     8    16    13    1
     9     2     5    1
    10     2     1    1
    11     2     3    1
    12     5     6    1
    13    12     3   am
    14    12    13    1
    15     3     4    2
    16    31    28    1
    17    13    14    1
    18     7     6    1
    19     7     8    1
    20    15    14    2
    21    14    19   am
    22    10     9    1
    23    28    27    1
    24    28    29    1
    25     8     9    2
    26    29    30    2
    27     9    11    1
    28    19    20    1
    29    39    38    2
    30    36    37    1
    31    38    37    1
    32    20    21    1
    33    20    23    1
    34    21    22    2
    35    37    40    1
    36    23    24    1
    37    26    24    1
    38    24    25    1
    39    40    42    1
    40    40    41    1
    41   128   127    1
    42   127   126    1
    43    45    44    1
    44    45    46    2
    45   126   125    1
    46    44    47    1
    47    44    43    1
    48    83    81   ar
    49    83    82   ar
    50    81    79   ar
    51   125   124    1
    52    82    80   ar
    53    79    78   ar
    54    80    78   ar
    55   119   117   ar
    56    78    77    1
    57   124   121    1
    58   116   117    1
    59   116   115    1
    60    92    91    2
    61   117   118   ar
    62    62    61    1
    63    77    74    1
    64   121   122    1
    65   121   120    1
    66   115   112    1
    67    56    57    1
    68   123   122    2
    69   108   107    1
    70   108   109    1
    71    59    58    2
    72   111   112    1
    73   111   109   am
    74    61    60    1
    75    61    63    1
    76    91    90    1
    77    91    96   am
    78    90    93    1
    79    90    89    1
    80    60    57    1
    81    87    86    2
    82    74    73    1
    83    74    75    1
    84   107    98   am
    85    93    94    1
    86    99    98    2
    87    57    58    1
    88   112   113    1
    89   109   110    2
    90    98    97    1
    91    58    64   am
    92    73    66   am
    93   136   134    1
    94    86    89   am
    95    86    85    1
    96    97    96    1
    97    97   100    1
    98    89    95    1
    99    84    75   am
   100    84    85    1
   101    75    76    2
   102   114   113    2
   103    67    66    2
   104    66    65    1
   105   135   134    1
   106    94    95    1
   107    85    88    1
   108    64    65    1
   109   134   133    1
   110    65    68    1
   111   100   101    1
   112   101   102    1
   113    55    53    1
   114   133   130    1
   115   102   103    1
   116    68    69    1
   117    54    53    1
   118    53    52    1
   119   130   129    1
   120   130   131    1
   121   103   104    2
   122    69    70    1
   123   131   132    2
   124   104   106    1
   125   104   105    1
   126    52    49    1
   127    70    71   ar
   128    70    72   ar
   129    50    49    1
   130    50    51    2
   131    49    48    1
