@<TRIPOS>MOLECULE
tmp/2vgrC00.pdb
 263 253 0 0 0
SMALL
GASTEIGER

@<TRIPOS>ATOM
      1  N        -28.0790   -8.3400  -29.8790 N.3    55  ARG55      -0.1245
      2  CA       -27.9070   -8.3770  -31.3310 C.3    55  ARG55       0.1563
      3  C        -26.4570   -8.1700  -31.7940 C.2    55  ARG55       0.2260
      4  O        -25.8230   -7.1740  -31.4860 O.2    55  ARG55      -0.2867
      5  CB       -28.9370   -7.5080  -32.0430 C.3    55  ARG55       0.0307
      6  CG       -28.7280   -6.0390  -31.8750 C.3    55  ARG55       0.0489
      7  CD       -28.0820   -5.5530  -33.1580 C.3    55  ARG55       0.2205
      8  NE       -27.7310   -4.1440  -33.1140 N.pl3  55  ARG55      -0.0865
      9  CZ       -26.4900   -3.7000  -32.9820 C.cat  55  ARG55       0.5346
     10  NH1      -25.4940   -4.5660  -32.8290 N.pl3  55  ARG55       0.1354
     11  NH2      -26.2590   -2.3870  -32.9990 N.pl3  55  ARG55       0.1354
     12  N        -23.5280   -8.2850  -34.6770 N.3    57  ALA57      -0.1245
     13  CA       -23.1010   -8.1730  -36.0640 C.3    57  ALA57       0.1562
     14  C        -21.6030   -8.3980  -36.1750 C.2    57  ALA57       0.2260
     15  O        -20.8220   -7.8190  -35.4200 O.2    57  ALA57      -0.2867
     16  CB       -23.4690   -6.7560  -36.6470 C.3    57  ALA57       0.0290
     17  N        -18.7270   -8.3810  -39.2910 N.3    59  ILE59      -0.1245
     18  CA       -18.3380   -8.1660  -40.6720 C.3    59  ILE59       0.1561
     19  C        -16.8220   -8.3050  -40.7620 C.2    59  ILE59       0.2260
     20  O        -16.1040   -7.6290  -40.0330 O.2    59  ILE59      -0.2867
     21  CB       -18.7370   -6.7220  -41.1110 C.3    59  ILE59       0.0252
     22  CG1      -20.2460   -6.4990  -40.9480 C.3    59  ILE59       0.0019
     23  CG2      -18.2540   -6.4130  -42.5450 C.3    59  ILE59       0.0019
     24  CD1      -20.6280   -5.0470  -40.6740 C.3    59  ILE59       0.0001
     25  N        -15.0530   -6.0900  -38.0220 N.3    66  ILE66      -0.1245
     26  CA       -15.9450   -5.2520  -37.2100 C.3    66  ILE66       0.1561
     27  C        -16.8680   -6.1060  -36.3530 C.2    66  ILE66       0.2260
     28  O        -17.5450   -7.0030  -36.8670 O.2    66  ILE66      -0.2867
     29  CB       -16.7090   -4.2540  -38.0930 C.3    66  ILE66       0.0252
     30  CG1      -15.7040   -3.2850  -38.7450 C.3    66  ILE66       0.0019
     31  CG2      -17.8230   -3.5050  -37.2800 C.3    66  ILE66       0.0019
     32  CD1      -16.1260   -2.7090  -40.1240 C.3    66  ILE66       0.0001
     33  N        -19.9190   -5.6220  -33.6870 N.3    68  ASN68      -0.1240
     34  CA       -20.8230   -4.5890  -33.2220 C.3    68  ASN68       0.1653
     35  C        -22.0300   -5.2630  -32.6090 C.2    68  ASN68       0.2266
     36  O        -22.8330   -5.9110  -33.2940 O.2    68  ASN68      -0.2867
     37  CB       -21.1880   -3.6000  -34.3520 C.3    68  ASN68       0.1155
     38  CG       -22.1810   -2.5280  -33.9120 C.2    68  ASN68       0.2627
     39  OD1      -22.9970   -2.7520  -33.0290 O.2    68  ASN68      -0.2716
     40  ND2      -22.1410   -1.3700  -34.5640 N.am   68  ASN68      -0.0877
     41  N        -24.9460   -5.0810  -29.2600 N.3    70  ILE70      -0.1245
     42  CA       -25.6660   -4.3880  -28.2000 C.3    70  ILE70       0.1561
     43  C        -26.5680   -5.3590  -27.5110 C.2    70  ILE70       0.2260
     44  O        -27.3580   -6.0220  -28.1760 O.2    70  ILE70      -0.2867
     45  CB       -26.6010   -3.2850  -28.7590 C.3    70  ILE70       0.0252
     46  CG1      -25.8080   -2.3390  -29.6600 C.3    70  ILE70       0.0019
     47  CG2      -27.3390   -2.6050  -27.5920 C.3    70  ILE70       0.0019
     48  CD1      -26.5920   -1.1390  -30.1860 C.3    70  ILE70       0.0001
     49  N        -21.0520   -2.1020  -27.8480 N.3    84  MET84      -0.1230
     50  CA       -19.6200   -2.1690  -28.1050 C.3    84  MET84       0.1702
     51  C        -19.4560   -2.1720  -29.6160 C.2    84  MET84       0.2592
     52  O        -20.2450   -2.8040  -30.3250 O.2    84  MET84      -0.2718
     53  CB       -19.0320   -3.4470  -27.4940 C.3    84  MET84       0.0401
     54  CG       -19.6350   -4.7040  -28.0860 C.3    84  MET84       0.0596
     55  SD       -19.3170   -6.2750  -27.2960 S.3    84  MET84      -0.1393
     56  CE       -20.5200   -6.1910  -25.9630 C.3    84  MET84       0.0692
     57  N        -18.4590   -1.4460  -30.1130 N.am   85  ASP85      -0.1974
     58  CA       -18.1380   -1.4440  -31.5230 C.3    85  ASP85       0.1709
     59  C        -16.6350   -1.6170  -31.6480 C.2    85  ASP85       0.2293
     60  O        -15.8540   -0.6680  -31.4770 O.2    85  ASP85      -0.2864
     61  CB       -18.5980   -0.1560  -32.1980 C.3    85  ASP85       0.1436
     62  CG       -18.8100   -0.3200  -33.7060 C.2    85  ASP85       0.3671
     63  OD1      -18.6850   -1.4650  -34.2370 O.co2  85  ASP85      -0.2456
     64  OD2      -19.1110    0.7070  -34.3570 O.co2  85  ASP85      -0.2456
     65  N        -13.7800   -2.2470  -33.9800 N.3    87  MET87      -0.1245
     66  CA       -13.6040   -2.0180  -35.4170 C.3    87  MET87       0.1570
     67  C        -12.1440   -2.0270  -35.8580 C.2    87  MET87       0.2261
     68  O        -11.4240   -1.0760  -35.5940 O.2    87  MET87      -0.2867
     69  CB       -14.2240   -0.6750  -35.8170 C.3    87  MET87       0.0387
     70  CG       -15.7150   -0.5610  -35.6110 C.3    87  MET87       0.0595
     71  SD       -16.2740    1.1440  -35.7740 S.3    87  MET87      -0.1393
     72  CE       -15.7350    1.8570  -34.2190 C.3    87  MET87       0.0692
     73  N         -9.9030   -1.6360  -39.1040 N.3    89  PHE89      -0.1241
     74  CA       -10.0330   -1.1020  -40.4630 C.3    89  PHE89       0.1605
     75  C         -8.7650   -1.3040  -41.2960 C.2    89  PHE89       0.2264
     76  O         -8.8290   -1.4480  -42.5200 O.2    89  PHE89      -0.2867
     77  CB       -10.3190    0.3990  -40.4370 C.3    89  PHE89       0.0534
     78  CG       -11.5420    0.7890  -39.6610 C.ar   89  PHE89      -0.0203
     79  CD1      -11.4600    1.7660  -38.6620 C.ar   89  PHE89      -0.0042
     80  CD2      -12.7850    0.2270  -39.9470 C.ar   89  PHE89      -0.0042
     81  CE1      -12.5910    2.1620  -37.9430 C.ar   89  PHE89      -0.0003
     82  CE2      -13.9270    0.6180  -39.2320 C.ar   89  PHE89      -0.0003
     83  CZ       -13.8250    1.5870  -38.2310 C.ar   89  PHE89      -0.0000
     84  N         -4.8310    0.2670  -37.8920 N.3    93  LYS93      -0.1245
     85  CA        -5.9750    1.0630  -37.4320 C.3    93  LYS93       0.1561
     86  C         -7.1530    0.2700  -36.8650 C.2    93  LYS93       0.2260
     87  O         -7.8610   -0.4140  -37.6060 O.2    93  LYS93      -0.2867
     88  CB        -6.4600    1.9690  -38.5630 C.3    93  LYS93       0.0271
     89  CG        -7.3720    3.0960  -38.1230 C.3    93  LYS93       0.0035
     90  CD        -6.6080    4.4110  -38.0150 C.3    93  LYS93       0.0206
     91  CE        -7.5170    5.5500  -37.5530 C.3    93  LYS93       0.1093
     92  NZ        -8.0760    5.2870  -36.2020 N.3    93  LYS93      -0.1314
     93  N        -10.4100    0.7840  -33.6810 N.3    95  ILE95      -0.1245
     94  CA       -11.0910    1.6010  -32.7110 C.3    95  ILE95       0.1561
     95  C        -11.9420    0.6550  -31.8830 C.2    95  ILE95       0.2260
     96  O        -12.6840   -0.1470  -32.4180 O.2    95  ILE95      -0.2867
     97  CB       -11.9480    2.6830  -33.4060 C.3    95  ILE95       0.0252
     98  CG1      -11.0420    3.5880  -34.2550 C.3    95  ILE95       0.0019
     99  CG2      -12.7410    3.4820  -32.3820 C.3    95  ILE95       0.0019
    100  CD1      -11.7580    4.6140  -35.1080 C.3    95  ILE95       0.0001
    101  N        -14.8210    0.6430  -28.9770 N.3    97  VAL97      -0.1245
    102  CA       -15.8270    1.4250  -28.2760 C.3    97  VAL97       0.1561
    103  C        -16.6820    0.5040  -27.4400 C.2    97  VAL97       0.2260
    104  O        -17.1880   -0.4750  -27.9500 O.2    97  VAL97      -0.2867
    105  CB       -16.7490    2.2040  -29.2480 C.3    97  VAL97       0.0252
    106  CG1      -17.8960    2.8560  -28.4940 C.3    97  VAL97       0.0019
    107  CG2      -15.9580    3.2650  -30.0060 C.3    97  VAL97       0.0019
    108  N        -14.1380   12.7160  -27.1210 N.3   121  TYR121     -0.1227
    109  CA       -14.3500   12.0210  -28.3990 C.3   121  TYR121      0.1736
    110  C        -15.4330   12.6790  -29.2580 C.2   121  TYR121      0.2595
    111  O        -16.5430   12.9330  -28.7830 O.2   121  TYR121     -0.2718
    112  CB       -14.7060   10.5640  -28.1280 C.3   121  TYR121      0.0548
    113  CG       -14.7430    9.6800  -29.3370 C.ar  121  TYR121     -0.0200
    114  CD1      -13.5980    9.4600  -30.0940 C.ar  121  TYR121     -0.0009
    115  CD2      -15.9170    9.0260  -29.7040 C.ar  121  TYR121     -0.0009
    116  CE1      -13.6180    8.6320  -31.2040 C.ar  121  TYR121      0.0417
    117  CE2      -15.9520    8.1910  -30.8070 C.ar  121  TYR121      0.0417
    118  CZ       -14.7990    8.0030  -31.5550 C.ar  121  TYR121      0.1957
    119  OH       -14.8170    7.1770  -32.6500 O.3   121  TYR121     -0.2866
    120  N        -15.0950   12.9470  -30.5180 N.am  122  ARG122     -0.1966
    121  CA       -15.9290   13.7500  -31.4340 C.3   122  ARG122      0.1729
    122  C        -17.1720   13.0410  -31.9920 C.2   122  ARG122      0.2616
    123  O        -18.2410   13.6480  -32.1300 O.2   122  ARG122     -0.2715
    124  CB       -15.0590   14.2740  -32.5910 C.3   122  ARG122      0.0348
    125  CG       -15.7150   14.2820  -33.9780 C.3   122  ARG122      0.0492
    126  CD       -14.6960   14.0070  -35.0810 C.3   122  ARG122      0.2205
    127  NE       -13.6220   13.1110  -34.6390 N.pl3 122  ARG122     -0.0865
    128  CZ       -13.7350   11.7940  -34.4540 C.cat 122  ARG122      0.5346
    129  NH1      -14.8800   11.1580  -34.6650 N.pl3 122  ARG122      0.1354
    130  NH2      -12.6840   11.1030  -34.0500 N.pl3 122  ARG122      0.1354
    131  N        -17.0190   11.7630  -32.3160 N.am  123  PHE123     -0.1960
    132  CA       -18.0460   11.0370  -33.0440 C.3   123  PHE123      0.1771
    133  C        -19.3110   10.8000  -32.2160 C.2   123  PHE123      0.2619
    134  O        -20.4000   10.6510  -32.7840 O.2   123  PHE123     -0.2715
    135  CB       -17.4830    9.7190  -33.5610 C.3   123  PHE123      0.0574
    136  CG       -18.2340    9.1520  -34.7320 C.ar  123  PHE123     -0.0200
    137  CD1      -17.9620    9.5910  -36.0310 C.ar  123  PHE123     -0.0042
    138  CD2      -19.2070    8.1620  -34.5410 C.ar  123  PHE123     -0.0042
    139  CE1      -18.6520    9.0590  -37.1250 C.ar  123  PHE123     -0.0003
    140  CE2      -19.8950    7.6140  -35.6270 C.ar  123  PHE123     -0.0003
    141  CZ       -19.6210    8.0660  -36.9190 C.ar  123  PHE123     -0.0000
    142  N        -19.1650   10.7710  -30.8880 N.am  124  PHE124     -0.1974
    143  CA       -20.2840   10.5000  -29.9910 C.3   124  PHE124      0.1639
    144  C        -20.5280   11.5940  -28.9660 C.2   124  PHE124      0.2290
    145  O        -19.6390   12.3930  -28.6610 O.2   124  PHE124     -0.2864
    146  CB       -20.0820    9.1650  -29.2790 C.3   124  PHE124      0.0560
    147  CG       -20.0700    7.9900  -30.1930 C.ar  124  PHE124     -0.0200
    148  CD1      -21.0020    7.8730  -31.2190 C.ar  124  PHE124     -0.0042
    149  CD2      -19.1360    6.9840  -30.0250 C.ar  124  PHE124     -0.0042
    150  CE1      -20.9920    6.7680  -32.0640 C.ar  124  PHE124     -0.0003
    151  CE2      -19.1180    5.8750  -30.8650 C.ar  124  PHE124     -0.0003
    152  CZ       -20.0480    5.7660  -31.8840 C.ar  124  PHE124     -0.0000
    153  N        -24.8530    7.8780  -24.5800 N.3   130  PHE130     -0.1241
    154  CA       -23.5130    7.4830  -24.0990 C.3   130  PHE130      0.1605
    155  C        -23.2720    7.9860  -22.6500 C.2   130  PHE130      0.2264
    156  O        -23.6770    9.1010  -22.2710 O.2   130  PHE130     -0.2867
    157  CB       -22.4060    7.9300  -25.0610 C.3   130  PHE130      0.0534
    158  CG       -22.5620    7.3570  -26.4390 C.ar  130  PHE130     -0.0203
    159  CD1      -22.2030    6.0250  -26.7040 C.ar  130  PHE130     -0.0042
    160  CD2      -23.1190    8.1060  -27.4460 C.ar  130  PHE130     -0.0042
    161  CE1      -22.3840    5.4750  -27.9780 C.ar  130  PHE130     -0.0003
    162  CE2      -23.3060    7.5710  -28.7240 C.ar  130  PHE130     -0.0003
    163  CZ       -22.9450    6.2550  -28.9840 C.ar  130  PHE130     -0.0000
    164  N         -8.1860    4.2440  -29.7820 N.3   138  TYR138     -0.1241
    165  CA        -7.5460    3.8630  -31.0310 C.3   138  TYR138      0.1605
    166  C         -6.3290    3.0460  -30.6660 C.2   138  TYR138      0.2264
    167  O         -5.6560    3.3560  -29.6900 O.2   138  TYR138     -0.2867
    168  CB        -7.0800    5.1030  -31.7970 C.3   138  TYR138      0.0534
    169  CG        -8.1710    6.0460  -32.2900 C.ar  138  TYR138     -0.0201
    170  CD1       -7.9480    6.8510  -33.3960 C.ar  138  TYR138     -0.0009
    171  CD2       -9.4120    6.1310  -31.6630 C.ar  138  TYR138     -0.0009
    172  CE1       -8.9070    7.7080  -33.8670 C.ar  138  TYR138      0.0417
    173  CE2      -10.3960    6.9970  -32.1390 C.ar  138  TYR138      0.0417
    174  CZ       -10.1240    7.7840  -33.2440 C.ar  138  TYR138      0.1957
    175  OH       -11.0630    8.6620  -33.7380 O.3   138  TYR138     -0.2866
    176  N        -29.1560    6.0870  -32.9900 N.3   182  MET182     -0.1245
    177  CA       -28.0810    5.2500  -33.4870 C.3   182  MET182      0.1570
    178  C        -28.0780    5.1230  -35.0120 C.2   182  MET182      0.2261
    179  O        -27.0220    5.1150  -35.6500 O.2   182  MET182     -0.2867
    180  CB       -28.1550    3.8850  -32.8080 C.3   182  MET182      0.0387
    181  CG       -27.8760    3.9570  -31.3190 C.3   182  MET182      0.0595
    182  SD       -26.2210    4.6100  -30.9990 S.3   182  MET182     -0.1393
    183  CE       -25.2530    3.0810  -31.0360 C.3   182  MET182      0.0692
    184  N        -26.0730    7.5040  -37.3490 N.3   185  LEU185     -0.1231
    185  CA       -24.6290    7.3490  -37.3400 C.3   185  LEU185      0.1693
    186  C        -24.1290    6.7220  -38.6390 C.2   185  LEU185      0.2592
    187  O        -24.6970    5.7440  -39.1350 O.2   185  LEU185     -0.2718
    188  CB       -24.2330    6.4680  -36.1460 C.3   185  LEU185      0.0284
    189  CG       -24.0680    7.0180  -34.7150 C.3   185  LEU185      0.0019
    190  CD1      -24.9980    8.1880  -34.3480 C.3   185  LEU185      0.0001
    191  CD2      -24.2500    5.8820  -33.7160 C.3   185  LEU185      0.0001
    192  N        -23.0640    7.2940  -39.1950 N.am  186  ASP186     -0.1960
    193  CA       -22.4290    6.7600  -40.4000 C.3   186  ASP186      0.1825
    194  C        -21.2420    5.8700  -40.0180 C.2   186  ASP186      0.2464
    195  O        -20.7430    5.9500  -38.8920 O.2   186  ASP186     -0.2730
    196  CB       -21.9470    7.9030  -41.3070 C.3   186  ASP186      0.1450
    197  CG       -23.0790    8.8090  -41.7770 C.2   186  ASP186      0.3671
    198  OD1      -24.0930    8.2920  -42.3060 O.co2 186  ASP186     -0.2456
    199  OD2      -22.9530   10.0470  -41.6270 O.co2 186  ASP186     -0.2456
    200  N        -20.7510    5.0460  -40.9590 N.am  187  PRO187     -0.2715
    201  CA       -21.2130    4.8200  -42.3170 C.3   187  PRO187      0.1536
    202  C        -21.7970    3.4240  -42.5660 C.2   187  PRO187      0.2598
    203  O        -21.7720    2.9700  -43.7130 O.2   187  PRO187     -0.2715
    204  CB       -19.9050    4.9060  -43.0950 C.3   187  PRO187      0.0310
    205  CG       -18.9210    4.1880  -42.1430 C.3   187  PRO187      0.0237
    206  CD       -19.5020    4.3040  -40.7260 C.3   187  PRO187      0.0939
    207  N        -22.3040    2.7400  -41.5400 N.am  188  VAL188     -0.1978
    208  CA       -22.7990    1.3670  -41.7550 C.3   188  VAL188      0.1596
    209  C        -23.7020    1.2880  -43.0070 C.2   188  VAL188      0.2287
    210  O        -23.5700    0.3860  -43.8240 O.2   188  VAL188     -0.2864
    211  CB       -23.4970    0.7660  -40.5060 C.3   188  VAL188      0.0276
    212  CG1      -24.7680    1.5310  -40.1530 C.3   188  VAL188      0.0022
    213  CG2      -23.8010   -0.7220  -40.7220 C.3   188  VAL188      0.0022
    214  N        -21.6770    1.7580  -46.3130 N.3   191  TYR191     -0.1227
    215  CA       -20.6550    0.7200  -46.3600 C.3   191  TYR191      0.1736
    216  C        -21.2640   -0.6360  -46.7210 C.2   191  TYR191      0.2595
    217  O        -20.7030   -1.3990  -47.5140 O.2   191  TYR191     -0.2718
    218  CB       -19.9230    0.6290  -45.0180 C.3   191  TYR191      0.0548
    219  CG       -18.9690   -0.5380  -44.9280 C.ar  191  TYR191     -0.0200
    220  CD1      -17.6240   -0.3910  -45.2620 C.ar  191  TYR191     -0.0009
    221  CD2      -19.4150   -1.7830  -44.5130 C.ar  191  TYR191     -0.0009
    222  CE1      -16.7470   -1.4550  -45.1820 C.ar  191  TYR191      0.0417
    223  CE2      -18.5570   -2.8530  -44.4340 C.ar  191  TYR191      0.0417
    224  CZ       -17.2230   -2.6880  -44.7710 C.ar  191  TYR191      0.1957
    225  OH       -16.3740   -3.7670  -44.6790 O.3   191  TYR191     -0.2866
    226  N        -22.4060   -0.9400  -46.1170 N.am  192  MET192     -0.1979
    227  CA       -23.1370   -2.1530  -46.4340 C.3   192  MET192      0.1605
    228  C        -23.7760   -2.0690  -47.8270 C.2   192  MET192      0.2287
    229  O        -23.9140   -3.0750  -48.5160 O.2   192  MET192     -0.2864
    230  CB       -24.1810   -2.4250  -45.3550 C.3   192  MET192      0.0413
    231  CG       -23.5720   -2.6200  -43.9840 C.3   192  MET192      0.0598
    232  SD       -22.6500   -4.1630  -43.8600 S.3   192  MET192     -0.1393
    233  CE       -24.0260   -5.2990  -43.7790 C.3   192  MET192      0.0692
    234  N        -30.5530   -4.5060  -43.0040 N.3   204  PHE204     -0.1241
    235  CA       -29.5670   -4.6910  -41.9440 C.3   204  PHE204      0.1605
    236  C        -29.6910   -3.5680  -40.9120 C.2   204  PHE204      0.2264
    237  O        -29.7400   -3.8240  -39.7330 O.2   204  PHE204     -0.2867
    238  CB       -28.1350   -4.7710  -42.5390 C.3   204  PHE204      0.0534
    239  CG       -27.0220   -4.8710  -41.5120 C.ar  204  PHE204     -0.0203
    240  CD1      -26.8580   -6.0170  -40.7310 C.ar  204  PHE204     -0.0042
    241  CD2      -26.1100   -3.8130  -41.3370 C.ar  204  PHE204     -0.0042
    242  CE1      -25.8510   -6.1000  -39.7860 C.ar  204  PHE204     -0.0003
    243  CE2      -25.0700   -3.9120  -40.4000 C.ar  204  PHE204     -0.0003
    244  CZ       -24.9570   -5.0720  -39.6220 C.ar  204  PHE204     -0.0000
    245  N        -30.0090   -4.1250  -36.9340 N.3   209  LEU209     -0.1231
    246  CA       -29.1540   -3.3910  -36.0250 C.3   209  LEU209      0.1693
    247  C        -29.9810   -2.5500  -35.0670 C.2   209  LEU209      0.2592
    248  O        -29.7510   -2.5600  -33.8640 O.2   209  LEU209     -0.2718
    249  CB       -28.2120   -2.4720  -36.7910 C.3   209  LEU209      0.0284
    250  CG       -26.8920   -2.9880  -37.3370 C.3   209  LEU209      0.0019
    251  CD1      -26.1420   -1.7830  -37.9080 C.3   209  LEU209      0.0001
    252  CD2      -26.0710   -3.7230  -36.2420 C.3   209  LEU209      0.0001
    253  N        -30.9310   -1.8170  -35.6210 N.am  210  PHE210     -0.1976
    254  CA       -31.6890   -0.8350  -34.8640 C.3   210  PHE210      0.1639
    255  C        -33.1830   -0.8930  -35.1920 C.2   210  PHE210      0.2290
    256  O        -33.7670    0.0670  -35.7080 O.2   210  PHE210     -0.2864
    257  CB       -31.1060    0.5490  -35.0810 C.3   210  PHE210      0.0560
    258  CG       -29.6400    0.6490  -34.7470 C.ar  210  PHE210     -0.0200
    259  CD1      -29.1970    0.5390  -33.4330 C.ar  210  PHE210     -0.0042
    260  CD2      -28.7090    0.8750  -35.7460 C.ar  210  PHE210     -0.0042
    261  CE1      -27.8570    0.6310  -33.1360 C.ar  210  PHE210     -0.0003
    262  CE2      -27.3610    0.9720  -35.4530 C.ar  210  PHE210     -0.0003
    263  CZ       -26.9390    0.8420  -34.1490 C.ar  210  PHE210     -0.0000
@<TRIPOS>BOND
     1   229   228    2
     2   228   227    1
     3   217   216    2
     4   216   215    1
     5   216   226   am
     6   227   226    1
     7   227   230    1
     8   215   214    1
     9   215   218    1
    10   230   231    1
    11   220   222   ar
    12   220   219   ar
    13   222   224   ar
    14   218   219    1
    15   219   221   ar
    16   224   225    1
    17   224   223   ar
    18   221   223   ar
    19   231   232    1
    20   232   233    1
    21   210   209    2
    22   203   202    2
    23   204   201    1
    24   204   205    1
    25   209   208    1
    26   234   235    1
    27   202   201    1
    28   202   207   am
    29    23    21    1
    30   238   235    1
    31   238   239    1
    32    76    75    2
    33   201   200    1
    34   198   197   ar
    35   205   206    1
    36   235   236    1
    37   197   199   ar
    38   197   196    1
    39   208   207    1
    40   208   211    1
    41   239   241   ar
    42   239   240   ar
    43   241   243   ar
    44   196   193    1
    45    75    74    1
    46    21    22    1
    47    21    18    1
    48   200   206    1
    49   200   194   am
    50    22    24    1
    51   236   237    2
    52    19    18    1
    53    19    20    2
    54   240   242   ar
    55   213   211    1
    56    18    17    1
    57   211   212    1
    58    74    77    1
    59    74    73    1
    60    77    78    1
    61   193   194    1
    62   193   192    1
    63   243   244   ar
    64    32    30    1
    65   194   195    2
    66    80    78   ar
    67    80    82   ar
    68   242   244   ar
    69    78    79   ar
    70    82    83   ar
    71   192   186   am
    72   187   186    2
    73    30    29    1
    74    79    81   ar
    75   186   185    1
    76    88    89    1
    77    88    85    1
    78    83    81   ar
    79    89    90    1
    80    29    31    1
    81    29    26    1
    82    25    26    1
    83    90    91    1
    84   251   250    1
    85    84    85    1
    86    87    86    2
    87    91    92    1
    88    85    86    1
    89   184   185    1
    90   185   188    1
    91   250   249    1
    92   250   252    1
    93    26    27    1
    94   139   141   ar
    95   139   137   ar
    96   245   246    1
    97   141   140   ar
    98    28    27    2
    99   249   246    1
   100    16    13    1
   101    14    13    1
   102    14    15    2
   103   188   189    1
   104    13    12    1
   105   137   136   ar
   106   246   247    1
   107    67    68    2
   108    67    66    1
   109    69    70    1
   110    69    66    1
   111    71    70    1
   112    71    72    1
   113   260   262   ar
   114   260   258   ar
   115   256   255    2
   116   179   178    2
   117   140   138   ar
   118   253   247   am
   119   253   254    1
   120   262   263   ar
   121    66    65    1
   122   255   254    1
   123   100    98    1
   124   257   254    1
   125   257   258    1
   126   126   127    1
   127   126   125    1
   128   247   248    2
   129   178   177    1
   130   258   259   ar
   131   136   138   ar
   132   136   135    1
   133   189   190    1
   134   189   191    1
   135   129   128    1
   136   127   128    2
   137    40    38   am
   138   128   130    1
   139    64    62   ar
   140    37    38    1
   141    37    34    1
   142    98    97    1
   143    63    62   ar
   144   263   261   ar
   145   125   124    1
   146    38    39    2
   147   172   170   ar
   148   172   174   ar
   149   175   174    1
   150    62    61    1
   151    33    34    1
   152    93    94    1
   153   135   132    1
   154   177   176    1
   155   177   180    1
   156   259   261   ar
   157    97    94    1
   158    97    99    1
   159   170   169   ar
   160    36    35    2
   161   174   173   ar
   162    34    35    1
   163     7     8    1
   164     7     6    1
   165     8     9    2
   166   132   131    1
   167   132   133    1
   168    11     9    1
   169     9    10    1
   170   180   181    1
   171   134   133    2
   172    94    95    1
   173   119   118    1
   174   124   121    1
   175    96    95    2
   176   131   122   am
   177   169   168    1
   178   169   171   ar
   179   133   142   am
   180    61    58    1
   181   173   171   ar
   182   123   122    2
   183   150   152   ar
   184   150   148   ar
   185     5     6    1
   186     5     2    1
   187   122   121    1
   188   152   151   ar
   189   168   165    1
   190     3     4    2
   191     3     2    1
   192    59    58    1
   193    59    60    2
   194   118   116   ar
   195   118   117   ar
   196    58    57    1
   197   121   120    1
   198     2     1    1
   199   181   182    1
   200   148   147   ar
   201   116   114   ar
   202   183   182    1
   203   165   166    1
   204   165   164    1
   205   142   143    1
   206   151   149   ar
   207   117   115   ar
   208   166   167    2
   209   120   110   am
   210    52    51    2
   211   147   149   ar
   212   147   146    1
   213    48    46    1
   214    57    51   am
   215   114   113   ar
   216   107   105    1
   217   143   146    1
   218   143   144    1
   219   115   113   ar
   220    46    45    1
   221    51    50    1
   222   113   112    1
   223    41    42    1
   224   110   111    2
   225   110   109    1
   226   105   106    1
   227   105   102    1
   228   163   162   ar
   229   163   161   ar
   230   101   102    1
   231   144   145    2
   232    45    42    1
   233    45    47    1
   234   162   160   ar
   235   109   112    1
   236   109   108    1
   237   102   103    1
   238    42    43    1
   239    44    43    2
   240    50    49    1
   241    50    53    1
   242    54    53    1
   243    54    55    1
   244   161   159   ar
   245   104   103    2
   246   160   158   ar
   247    55    56    1
   248   159   158   ar
   249   158   157    1
   250   157   154    1
   251   153   154    1
   252   154   155    1
   253   155   156    2
