@<TRIPOS>MOLECULE
tmp/2vgsA00.pdb
 127 120 0 0 0
SMALL
GASTEIGER

@<TRIPOS>ATOM
      1  N          9.4130   16.2890   14.1290 N.3    31  SER31      -0.1217
      2  CA         9.1250   14.8500   14.1850 C.3    31  SER31       0.1889
      3  C          8.6710   14.2700   12.8380 C.2    31  SER31       0.2288
      4  O          8.4510   13.0630   12.7230 O.2    31  SER31      -0.2866
      5  CB         8.0460   14.5850   15.2430 C.3    31  SER31       0.2089
      6  OG         6.8830   15.3320   14.9250 O.3    31  SER31      -0.2183
      7  N          4.3440    1.5710   18.4780 N.3    93  SER93      -0.1202
      8  CA         4.6760    2.9890   18.5260 C.3    93  SER93       0.2020
      9  C          5.8800    3.2110   19.4400 C.2    93  SER93       0.2619
     10  O          6.3120    2.2800   20.1350 O.2    93  SER93      -0.2717
     11  CB         3.4810    3.7670   19.0690 C.3    93  SER93       0.2103
     12  OG         3.3020    3.5070   20.4600 O.3    93  SER93      -0.2182
     13  N          6.4020    4.4430   19.4480 N.am   94  GLY94      -0.1942
     14  CA         7.3760    4.8730   20.4470 C.3    94  GLY94       0.2014
     15  C          6.8270    4.7950   21.8610 C.2    94  GLY94       0.2638
     16  O          7.5460    4.4080   22.7840 O.2    94  GLY94      -0.2714
     17  N          5.5550    5.1580   22.0330 N.am   95  ALA95      -0.1977
     18  CA         4.8680    5.0460   23.3310 C.3    95  ALA95       0.1597
     19  C          4.8840    3.6130   23.8850 C.2    95  ALA95       0.2287
     20  O          5.2100    3.3870   25.0590 O.2    95  ALA95      -0.2864
     21  CB         3.4360    5.5610   23.2260 C.3    95  ALA95       0.0319
     22  N          8.4530    2.4580   24.9520 N.3    98  ASN98      -0.1240
     23  CA         8.6890    2.9860   26.2960 C.3    98  ASN98       0.1653
     24  C          7.8950    2.2500   27.3640 C.2    98  ASN98       0.2266
     25  O          8.4510    1.8390   28.3800 O.2    98  ASN98      -0.2867
     26  CB         8.3840    4.4890   26.3420 C.3    98  ASN98       0.1155
     27  CG         9.3870    5.3100   25.5410 C.2    98  ASN98       0.2627
     28  OD1       10.3370    4.7670   24.9790 O.2    98  ASN98      -0.2716
     29  ND2        9.1780    6.6160   25.4840 N.am   98  ASN98      -0.0877
     30  N          9.8680   14.1340   26.8820 N.3   122  HIS122     -0.1241
     31  CA         8.6510   13.6990   26.1930 C.3   122  HIS122      0.1621
     32  C          7.4780   13.3850   27.1390 C.2   122  HIS122      0.2264
     33  O          7.6590   13.1230   28.3360 O.2   122  HIS122     -0.2867
     34  CB         8.9350   12.5030   25.2800 C.3   122  HIS122      0.0745
     35  CG         7.8100   12.1790   24.3440 C.ar  122  HIS122      0.0817
     36  ND1        7.0160   11.0630   24.4910 N.ar  122  HIS122     -0.2268
     37  CD2        7.3410   12.8320   23.2550 C.ar  122  HIS122      0.1154
     38  CE1        6.1060   11.0420   23.5330 C.ar  122  HIS122      0.1986
     39  NE2        6.2850   12.1010   22.7650 N.ar  122  HIS122     -0.2212
     40  N          5.7630   10.7340   27.3570 N.3   124  THR124     -0.1203
     41  CA         5.9370    9.4010   27.9450 C.3   124  THR124      0.1994
     42  C          7.0830    9.3450   28.9550 C.2   124  THR124      0.2617
     43  O          7.4490    8.2650   29.4150 O.2   124  THR124     -0.2717
     44  CB         6.1570    8.3220   26.8660 C.3   124  THR124      0.1784
     45  OG1        7.3320    8.6310   26.1070 O.3   124  THR124     -0.2211
     46  CG2        4.9500    8.2470   25.9450 C.3   124  THR124      0.0376
     47  N          7.6590   10.5040   29.2710 N.am  125  HIS125     -0.1975
     48  CA         8.7060   10.5870   30.2900 C.3   125  HIS125      0.1656
     49  C          8.1480   11.1940   31.5800 C.2   125  HIS125      0.2291
     50  O          8.8120   12.0140   32.2190 O.2   125  HIS125     -0.2864
     51  CB         9.9160   11.4180   29.8170 C.3   125  HIS125      0.0771
     52  CG        10.5370   10.9490   28.5340 C.ar  125  HIS125      0.0820
     53  ND1       10.2620    9.7230   27.9660 N.ar  125  HIS125     -0.2267
     54  CD2       11.4460   11.5430   27.7240 C.ar  125  HIS125      0.1154
     55  CE1       10.9620    9.5890   26.8530 C.ar  125  HIS125      0.1986
     56  NE2       11.6860   10.6810   26.6820 N.ar  125  HIS125     -0.2212
     57  N         14.9770   13.2050   24.3730 N.3   171  ALA171     -0.1231
     58  CA        14.1190   14.3830   24.3460 C.3   171  ALA171      0.1694
     59  C         13.3400   14.5250   23.0380 C.2   171  ALA171      0.2592
     60  O         13.6520   13.8750   22.0470 O.2   171  ALA171     -0.2718
     61  CB        14.9680   15.6300   24.5930 C.3   171  ALA171      0.0304
     62  N         12.3090   15.3600   23.0570 N.am  172  SER172     -0.1952
     63  CA        11.5710   15.6630   21.8380 C.3   172  SER172      0.1924
     64  C         11.8190   17.0960   21.3550 C.2   172  SER172      0.2314
     65  O         11.4470   17.4600   20.2350 O.2   172  SER172     -0.2863
     66  CB        10.0790   15.3270   21.9940 C.3   172  SER172      0.2116
     67  OG         9.5170   15.9070   23.1610 O.3   172  SER172     -0.2180
     68  N         15.7570    7.1710   25.1460 N.3   197  ASP197     -0.1239
     69  CA        14.7230    7.2760   24.1220 C.3   197  ASP197      0.1674
     70  C         15.2780    8.1450   22.9790 C.2   197  ASP197      0.2266
     71  O         15.2510    9.3790   23.0450 O.2   197  ASP197     -0.2867
     72  CB        13.4500    7.8810   24.7350 C.3   197  ASP197      0.1410
     73  CG        12.2890    7.9660   23.7560 C.2   197  ASP197      0.3668
     74  OD1       12.4500    7.6700   22.5480 O.co2 197  ASP197     -0.2456
     75  OD2       11.1930    8.3500   24.2080 O.co2 197  ASP197     -0.2456
     76  N         14.1920    8.4770   19.9390 N.3   199  ALA199     -0.1231
     77  CA        13.2040    8.6450   18.8550 C.3   199  ALA199      0.1694
     78  C         13.5380    9.7720   17.8560 C.2   199  ALA199      0.2592
     79  O         13.5440    9.5570   16.6330 O.2   199  ALA199     -0.2718
     80  CB        11.8000    8.8180   19.4290 C.3   199  ALA199      0.0304
     81  N         13.8290   10.9660   18.3660 N.am  200  HIS200     -0.1976
     82  CA        14.1040   12.1050   17.4770 C.3   200  HIS200      0.1656
     83  C         15.3940   11.9900   16.6690 C.2   200  HIS200      0.2291
     84  O         15.4500   12.4110   15.5140 O.2   200  HIS200     -0.2864
     85  CB        14.0550   13.4280   18.2370 C.3   200  HIS200      0.0771
     86  CG        12.7480   14.1400   18.0980 C.ar  200  HIS200      0.0820
     87  ND1       12.5200   15.0900   17.1260 N.ar  200  HIS200     -0.2267
     88  CD2       11.5850   14.0070   18.7770 C.ar  200  HIS200      0.1154
     89  CE1       11.2770   15.5300   17.2280 C.ar  200  HIS200      0.1986
     90  NE2       10.6890   14.8860   18.2190 N.ar  200  HIS200     -0.2212
     91  N         11.2080    5.5320   17.9580 N.3   223  THR223     -0.1218
     92  CA        10.2260    5.3970   16.8990 C.3   223  THR223      0.1862
     93  C         11.0100    4.9560   15.6640 C.2   223  THR223      0.2287
     94  O         12.2220    5.1790   15.5880 O.2   223  THR223     -0.2866
     95  CB         9.5480    6.7330   16.6260 C.3   223  THR223      0.1770
     96  OG1       10.5560    7.7220   16.4010 O.3   223  THR223     -0.2211
     97  CG2        8.6960    7.1680   17.8280 C.3   223  THR223      0.0375
     98  N          9.8170    5.8490   12.6170 N.3   225  HIS225     -0.1226
     99  CA         9.6380    7.0960   11.8890 C.3   225  HIS225      0.1752
    100  C         10.4980    8.2070   12.5270 C.2   225  HIS225      0.2595
    101  O         11.2870    7.9360   13.4420 O.2   225  HIS225     -0.2718
    102  CB         8.1430    7.4770   11.8290 C.3   225  HIS225      0.0759
    103  CG         7.4790    7.6010   13.1720 C.ar  225  HIS225      0.0818
    104  ND1        7.1510    6.5070   13.9470 N.ar  225  HIS225     -0.2268
    105  CD2        7.0590    8.6890   13.8640 C.ar  225  HIS225      0.1154
    106  CE1        6.5620    6.9150   15.0580 C.ar  225  HIS225      0.1986
    107  NE2        6.4870    8.2350   15.0300 N.ar  225  HIS225     -0.2212
    108  N         10.3220    9.4440   12.0600 N.am  226  LYS226     -0.1980
    109  CA        11.1130   10.6200   12.4680 C.3   226  LYS226      0.1596
    110  C         12.4260   10.6900   11.6670 C.2   226  LYS226      0.2287
    111  O         12.3700   10.5640   10.4480 O.2   226  LYS226     -0.2864
    112  CB        11.2700   10.7340   14.0060 C.3   226  LYS226      0.0298
    113  CG         9.9290   10.9430   14.7110 C.3   226  LYS226      0.0038
    114  CD        10.0510   11.0940   16.2310 C.3   226  LYS226      0.0206
    115  CE         8.6720   10.9810   16.9010 C.3   226  LYS226      0.1093
    116  NZ         8.6850   11.5080   18.2810 N.3   226  LYS226     -0.1314
    117  N          5.5260    4.4140   10.5430 N.3   232  ARG232     -0.1245
    118  CA         5.1150    4.7920   11.8840 C.3   232  ARG232      0.1563
    119  C          5.0520    3.5470   12.7990 C.2   232  ARG232      0.2260
    120  O          4.3510    2.5670   12.5060 O.2   232  ARG232     -0.2867
    121  CB         3.7750    5.5080   11.7870 C.3   232  ARG232      0.0307
    122  CG         3.3870    6.3540   12.9690 C.3   232  ARG232      0.0489
    123  CD         2.2730    7.3330   12.5490 C.3   232  ARG232      0.2205
    124  NE         2.8280    8.4010   11.7310 N.pl3 232  ARG232     -0.0865
    125  CZ         3.3610    9.5240   12.2100 C.cat 232  ARG232      0.5346
    126  NH1        3.8600   10.4210   11.3770 N.pl3 232  ARG232      0.1354
    127  NH2        3.3960    9.7550   13.5150 N.pl3 232  ARG232      0.1354
@<TRIPOS>BOND
     1   111   110    2
     2   117   118    1
     3   126   125    1
     4   110   109    1
     5   124   125    2
     6   124   123    1
     7   121   118    1
     8   121   122    1
     9   102    99    1
    10   102   103    1
    11   118   119    1
    12    99   100    1
    13    99    98    1
    14   108   109    1
    15   108   100   am
    16   125   127    1
    17   109   112    1
    18   120   119    2
    19   100   101    2
    20   123   122    1
    21     4     3    2
    22     3     2    1
    23   103   105   ar
    24   103   104   ar
    25   105   107   ar
    26   104   106   ar
    27   112   113    1
    28     1     2    1
    29     2     5    1
    30   113   114    1
    31     6     5    1
    32   107   106   ar
    33    84    83    2
    34    94    93    2
    35    93    92    1
    36   114   115    1
    37    96    95    1
    38    95    92    1
    39    95    97    1
    40    79    78    2
    41    83    82    1
    42    92    91    1
    43   115   116    1
    44    87    89   ar
    45    87    86   ar
    46    89    90   ar
    47    82    85    1
    48    82    81    1
    49    78    81   am
    50    78    77    1
    51    86    85    1
    52    86    88   ar
    53    90    88   ar
    54     7     8    1
    55     8    11    1
    56     8     9    1
    57    77    80    1
    58    77    76    1
    59    11    12    1
    60     9    13   am
    61     9    10    2
    62    13    14    1
    63    65    64    2
    64    14    15    1
    65    64    63    1
    66    63    66    1
    67    63    62    1
    68    15    17   am
    69    15    16    2
    70    66    67    1
    71    17    18    1
    72    60    59    2
    73    74    73   ar
    74    39    37   ar
    75    39    38   ar
    76    70    71    2
    77    70    69    1
    78    59    62   am
    79    59    58    1
    80    21    18    1
    81    37    35   ar
    82    18    19    1
    83    38    36   ar
    84    73    75   ar
    85    73    72    1
    86    19    20    2
    87    69    72    1
    88    69    68    1
    89    35    36   ar
    90    35    34    1
    91    58    57    1
    92    58    61    1
    93    22    23    1
    94    28    27    2
    95    34    31    1
    96    29    27   am
    97    27    26    1
    98    46    44    1
    99    45    44    1
   100    31    30    1
   101    31    32    1
   102    23    26    1
   103    23    24    1
   104    56    55   ar
   105    56    54   ar
   106    55    53   ar
   107    44    41    1
   108    32    33    2
   109    40    41    1
   110    24    25    2
   111    54    52   ar
   112    41    42    1
   113    53    52   ar
   114    52    51    1
   115    42    47   am
   116    42    43    2
   117    47    48    1
   118    51    48    1
   119    48    49    1
   120    49    50    2
