@<TRIPOS>MOLECULE
tmp/2vh0A00.pdb
 187 186 0 0 0
SMALL
GASTEIGER

@<TRIPOS>ATOM
      1  N         13.8690   10.9150   14.0790 N.3    42  HIS42      -0.1241
      2  CA        12.3880   10.9120   14.0570 C.3    42  HIS42       0.1621
      3  C         11.8060   12.3020   14.3900 C.2    42  HIS42       0.2264
      4  O         10.6700   12.6430   14.0120 O.2    42  HIS42      -0.2867
      5  CB        11.8120    9.8260   14.9730 C.3    42  HIS42       0.0745
      6  CG        11.7640   10.2100   16.4200 C.ar   42  HIS42       0.0817
      7  ND1       12.7080    9.8000   17.3420 N.ar   42  HIS42      -0.2268
      8  CD2       10.8830   10.9800   17.1010 C.ar   42  HIS42       0.1154
      9  CE1       12.3900   10.2810   18.5340 C.ar   42  HIS42       0.1986
     10  NE2       11.2920   11.0090   18.4120 N.ar   42  HIS42      -0.2212
     11  N         10.8060    4.8550   10.3530 N.3    82  LYS82      -0.1231
     12  CA         9.7450    4.8590   11.3720 C.3    82  LYS82       0.1693
     13  C          9.3390    3.4210   11.7020 C.2    82  LYS82       0.2592
     14  O          8.7770    3.1430   12.7600 O.2    82  LYS82      -0.2718
     15  CB         8.4840    5.5590   10.8400 C.3    82  LYS82       0.0285
     16  CG         8.6490    6.9460   10.2510 C.3    82  LYS82       0.0035
     17  CD         7.2720    7.5240    9.8530 C.3    82  LYS82       0.0206
     18  CE         7.3830    8.9850    9.3870 C.3    82  LYS82       0.1093
     19  NZ         6.0530    9.6430    9.1550 N.3    82  LYS82      -0.1314
     20  N          9.5940    2.5070   10.7740 N.am   83  GLU83      -0.1966
     21  CA         9.1750    1.1270   10.9470 C.3    83  GLU83       0.1733
     22  C          9.9320    0.4030   12.0420 C.2    83  GLU83       0.2617
     23  O          9.3480   -0.3930   12.7670 O.2    83  GLU83      -0.2715
     24  CB         9.2720    0.3760    9.6090 C.3    83  GLU83       0.0429
     25  CG         8.2920    0.9380    8.5440 C.3    83  GLU83       0.1163
     26  CD         8.7120    0.6700    7.0830 C.2    83  GLU83       0.3649
     27  OE1        9.8120    0.0930    6.8420 O.co2  83  GLU83      -0.2457
     28  OE2        7.9390    1.0670    6.1690 O.co2  83  GLU83      -0.2457
     29  N         11.2210    0.6950   12.1920 N.am   84  THR84      -0.1937
     30  CA        12.0260   -0.0090   13.1980 C.3    84  THR84       0.2028
     31  C         12.5930    0.9320   14.2630 C.2    84  THR84       0.2642
     32  O         13.0390    0.4810   15.3260 O.2    84  THR84      -0.2714
     33  CB        13.2670   -0.6190   12.5350 C.3    84  THR84       0.1808
     34  OG1       13.9730    0.4100   11.8280 O.3    84  THR84      -0.2208
     35  CG2       12.8760   -1.7640   11.5550 C.3    84  THR84       0.0379
     36  N         12.6070    2.2180   13.9240 N.am   85  TYR85      -0.1973
     37  CA        13.2690    3.2640   14.7480 C.3    85  TYR85       0.1639
     38  C         14.7680    3.0700   14.8450 C.2    85  TYR85       0.2290
     39  O         15.4190    3.6860   15.7090 O.2    85  TYR85      -0.2864
     40  CB        12.6450    3.4310   16.1340 C.3    85  TYR85       0.0560
     41  CG        11.6260    4.5370   16.1610 C.ar   85  TYR85      -0.0198
     42  CD1       10.5100    4.4990   15.3100 C.ar   85  TYR85      -0.0009
     43  CD2       11.7590    5.6270   17.0440 C.ar   85  TYR85      -0.0009
     44  CE1        9.5640    5.5360   15.3000 C.ar   85  TYR85       0.0417
     45  CE2       10.8050    6.6600   17.0500 C.ar   85  TYR85       0.0417
     46  CZ         9.7100    6.5970   16.1780 C.ar   85  TYR85       0.1957
     47  OH         8.7500    7.5830   16.1510 O.3    85  TYR85      -0.2866
     48  N          2.7530   10.7430   31.7430 N.3   135  GLU135     -0.1245
     49  CA         2.3970   10.2760   30.3970 C.3   135  GLU135      0.1567
     50  C          1.2630   11.0780   29.7520 C.2   135  GLU135      0.2260
     51  O          1.3300   11.4230   28.5740 O.2   135  GLU135     -0.2867
     52  CB         2.0810    8.7750   30.3870 C.3   135  GLU135      0.0388
     53  CG         1.8820    8.2230   28.9840 C.3   135  GLU135      0.1160
     54  CD         1.8760    6.7010   28.9100 C.2   135  GLU135      0.3649
     55  OE1        2.5270    6.0110   29.7510 O.co2 135  GLU135     -0.2457
     56  OE2        1.2210    6.1950   27.9660 O.co2 135  GLU135     -0.2457
     57  N          9.2820   -4.5590   20.9460 N.3   162  PHE162     -0.1227
     58  CA         9.8620   -4.2950   19.6180 C.3   162  PHE162      0.1736
     59  C         11.3450   -4.6180   19.6480 C.2   162  PHE162      0.2595
     60  O         11.9360   -4.6460   20.7230 O.2   162  PHE162     -0.2718
     61  CB         9.6280   -2.8430   19.2150 C.3   162  PHE162      0.0547
     62  CG         8.2040   -2.3950   19.3920 C.ar  162  PHE162     -0.0202
     63  CD1        7.7840   -1.8330   20.5920 C.ar  162  PHE162     -0.0042
     64  CD2        7.2760   -2.5660   18.3730 C.ar  162  PHE162     -0.0042
     65  CE1        6.4650   -1.4270   20.7770 C.ar  162  PHE162     -0.0003
     66  CE2        5.9480   -2.1600   18.5480 C.ar  162  PHE162     -0.0003
     67  CZ         5.5450   -1.5900   19.7490 C.ar  162  PHE162     -0.0000
     68  N         11.9460   -4.8770   18.4890 N.am  163  ILE163     -0.1980
     69  CA        13.3680   -5.2490   18.4370 C.3   163  ILE163      0.1595
     70  C         14.3050   -4.1270   18.9380 C.2   163  ILE163      0.2287
     71  O         14.2520   -3.0000   18.4530 O.2   163  ILE163     -0.2864
     72  CB        13.8140   -5.7140   17.0120 C.3   163  ILE163      0.0276
     73  CG1       13.0660   -6.9890   16.5610 C.3   163  ILE163      0.0022
     74  CG2       15.3270   -5.9910   16.9720 C.3   163  ILE163      0.0022
     75  CD1       13.4390   -8.2620   17.3520 C.3   163  ILE163      0.0001
     76  N         11.2520    8.5460   34.1810 N.3   179  ASP179     -0.1225
     77  CA        11.5900    8.2260   32.7830 C.3   179  ASP179      0.1805
     78  C         11.5280    9.4900   31.9720 C.2   179  ASP179      0.2598
     79  O         10.9940   10.5010   32.4400 O.2   179  ASP179     -0.2718
     80  CB        10.5030    7.2730   32.2500 C.3   179  ASP179      0.1424
     81  CG        10.9050    6.4960   30.9840 C.2   179  ASP179      0.3668
     82  OD1       12.0970    6.5440   30.5850 O.co2 179  ASP179     -0.2456
     83  OD2       10.0160    5.7940   30.4090 O.co2 179  ASP179     -0.2456
     84  N         12.0840    9.4510   30.7570 N.am  180  ALA180     -0.1966
     85  CA        11.8920   10.5350   29.8020 C.3   180  ALA180      0.1728
     86  C         10.4460   10.3850   29.3630 C.2   180  ALA180      0.2616
     87  O          9.7880    9.4040   29.7510 O.2   180  ALA180     -0.2715
     88  CB        12.8340   10.3680   28.5890 C.3   180  ALA180      0.0334
     89  N          9.9540   11.3210   28.5620 N.am  181  CYS181     -0.1954
     90  CA         8.5800   11.2550   28.1080 C.3   181  CYS181      0.1843
     91  C          8.3720   12.0970   26.8430 C.2   181  CYS181      0.2625
     92  O          9.3230   12.5890   26.2490 O.2   181  CYS181     -0.2714
     93  CB         7.6460   11.6560   29.2570 C.3   181  CYS181      0.0997
     94  SG         5.8630   11.1190   29.0140 S.3   181  CYS181     -0.0797
     95  N          7.1270   12.2760   26.4060 N.am  182  GLN182     -0.1963
     96  CA         6.8780   13.0170   25.1700 C.3   182  GLN182      0.1733
     97  C          7.4470   14.4380   25.2120 C.2   182  GLN182      0.2616
     98  O          7.2100   15.1610   26.1740 O.2   182  GLN182     -0.2715
     99  CB         5.3630   13.0410   24.8710 C.3   182  GLN182      0.0408
    100  CG         5.0110   13.5670   23.4960 C.3   182  GLN182      0.0908
    101  CD         3.5210   13.7230   23.3360 C.2   182  GLN182      0.2608
    102  OE1        3.0350   14.8090   23.0220 O.2   182  GLN182     -0.2717
    103  NE2        2.7810   12.6550   23.5990 N.am  182  GLN182     -0.0878
    104  N          8.1880   14.8240   24.1700 N.am  183  GLY183     -0.1955
    105  CA         8.7920   16.1450   24.1110 C.3   183  GLY183      0.1869
    106  C         10.2790   16.0910   24.4760 C.2   183  GLY183      0.2309
    107  O         10.9990   17.0460   24.2190 O.2   183  GLY183     -0.2863
    108  N         12.2410   13.5590   23.4180 N.3   185  SER185     -0.1217
    109  CA        12.9970   12.8280   22.3840 C.3   185  SER185      0.1889
    110  C         13.9320   13.7500   21.6150 C.2   185  SER185      0.2288
    111  O         13.6120   14.9130   21.3760 O.2   185  SER185     -0.2866
    112  CB        12.1190   12.0570   21.3930 C.3   185  SER185      0.2089
    113  OG        11.3960   12.9170   20.5850 O.3   185  SER185     -0.2183
    114  N         17.6640   10.5450   23.4200 N.3   203  VAL203     -0.1231
    115  CA        16.3370   10.0420   23.8220 C.3   203  VAL203      0.1692
    116  C         15.5890    9.6380   22.5070 C.2   203  VAL203      0.2593
    117  O         15.4090   10.4580   21.5960 O.2   203  VAL203     -0.2718
    118  CB        15.5590   11.1480   24.5520 C.3   203  VAL203      0.0266
    119  CG1       14.1420   10.6290   24.8700 C.3   203  VAL203      0.0020
    120  CG2       16.2930   11.5610   25.8640 C.3   203  VAL203      0.0020
    121  N         15.1510    8.3760   22.4270 N.am  204  SER204     -0.1938
    122  CA        14.5910    7.8830   21.1680 C.3   204  SER204      0.2055
    123  C         13.1150    7.4670   21.2490 C.2   204  SER204      0.2643
    124  O         12.2680    8.0350   20.5600 O.2   204  SER204     -0.2714
    125  CB        15.4600    6.7310   20.6550 C.3   204  SER204      0.2130
    126  OG        15.0580    6.2500   19.3570 O.3   204  SER204     -0.2179
    127  N         12.8230    6.4640   22.0610 N.am  205  TRP205     -0.1959
    128  CA        11.4240    5.9740   22.1630 C.3   205  TRP205      0.1771
    129  C         11.2030    5.1560   23.4150 C.2   205  TRP205      0.2620
    130  O         12.1480    4.7460   24.0820 O.2   205  TRP205     -0.2715
    131  CB        11.0710    5.1380   20.9190 C.3   205  TRP205      0.0590
    132  CG        11.9070    3.8810   20.7030 C.ar  205  TRP205      0.0006
    133  CD1       13.0920    3.8030   20.0360 C.ar  205  TRP205      0.0946
    134  CD2       11.5790    2.5340   21.1050 C.ar  205  TRP205      0.0152
    135  NE1       13.5510    2.4980   20.0210 N.ar  205  TRP205     -0.2442
    136  CE2       12.6350    1.6990   20.6690 C.ar  205  TRP205      0.0810
    137  CE3       10.4900    1.9570   21.7820 C.ar  205  TRP205      0.0012
    138  CZ2       12.6430    0.3130   20.8860 C.ar  205  TRP205      0.0191
    139  CZ3       10.5090    0.5780   22.0140 C.ar  205  TRP205      0.0001
    140  CH2       11.5650   -0.2320   21.5470 C.ar  205  TRP205      0.0015
    141  N          9.9340    4.8990   23.7350 N.am  206  GLY206     -0.1940
    142  CA         9.5760    4.1160   24.8990 C.3   206  GLY206      0.2014
    143  C          8.1330    3.7170   24.6520 C.2   206  GLY206      0.2639
    144  O          7.4260    4.3850   23.9060 O.2   206  GLY206     -0.2714
    145  N          7.7260    2.6080   25.2480 N.am  207  GLU207     -0.1963
    146  CA         6.3330    2.1430   25.1310 C.3   207  GLU207      0.1733
    147  C          5.5890    2.8770   26.2490 C.2   207  GLU207      0.2617
    148  O          5.4010    2.3560   27.3350 O.2   207  GLU207     -0.2715
    149  CB         6.3040    0.6270   25.2930 C.3   207  GLU207      0.0429
    150  CG         7.1800   -0.1270   24.2650 C.3   207  GLU207      0.1163
    151  CD         7.0470   -1.6370   24.4000 C.2   207  GLU207      0.3649
    152  OE1        5.8910   -2.1240   24.3840 O.co2 207  GLU207     -0.2457
    153  OE2        8.0720   -2.3330   24.5160 O.co2 207  GLU207     -0.2457
    154  N          5.2200    4.1270   25.9830 N.am  208  GLY208     -0.1940
    155  CA         4.6320    4.9880   27.0080 C.3   208  GLY208      0.2014
    156  C          5.7400    5.6560   27.8060 C.2   208  GLY208      0.2639
    157  O          6.8920    5.7320   27.3370 O.2   208  GLY208     -0.2714
    158  N          5.4090    6.1530   28.9990 N.am  209  CYS209     -0.1967
    159  CA         6.4070    6.8050   29.8560 C.3   209  CYS209      0.1712
    160  C          6.3340    6.2260   31.2540 C.2   209  CYS209      0.2296
    161  O          5.2570    6.2210   31.8700 O.2   209  CYS209     -0.2864
    162  CB         6.1700    8.3260   29.9450 C.3   209  CYS209      0.0983
    163  SG         5.9890    9.1750   28.4320 S.3   209  CYS209     -0.0798
    164  N         13.3020    3.1840   29.0540 N.3   216  GLY216     -0.1210
    165  CA        13.4470    4.1650   27.9810 C.3   216  GLY216      0.1956
    166  C         14.4820    3.6370   27.0070 C.2   216  GLY216      0.2612
    167  O         15.4490    2.9770   27.4210 O.2   216  GLY216     -0.2717
    168  N         14.2690    3.9020   25.7260 N.am  217  ILE217     -0.1965
    169  CA        15.1520    3.4010   24.6870 C.3   217  ILE217      0.1727
    170  C         15.8800    4.5940   24.0770 C.2   217  ILE217      0.2616
    171  O         15.2540    5.5780   23.6420 O.2   217  ILE217     -0.2715
    172  CB        14.4370    2.5790   23.5770 C.3   217  ILE217      0.0290
    173  CG1       13.4380    1.5540   24.1890 C.3   217  ILE217      0.0022
    174  CG2       15.4820    1.8660   22.6550 C.3   217  ILE217      0.0023
    175  CD1       14.0020    0.6010   25.2230 C.3   217  ILE217      0.0001
    176  N         17.2020    4.4570   24.0710 N.am  218  TYR218     -0.1974
    177  CA        18.1250    5.5000   23.6240 C.3   218  TYR218      0.1639
    178  C         18.9490    5.0960   22.4220 C.2   218  TYR218      0.2290
    179  O         19.4550    3.9730   22.3420 O.2   218  TYR218     -0.2864
    180  CB        19.0690    5.8550   24.7750 C.3   218  TYR218      0.0560
    181  CG        18.3220    6.4590   25.9660 C.ar  218  TYR218     -0.0198
    182  CD1       17.6370    5.6350   26.8690 C.ar  218  TYR218     -0.0009
    183  CD2       18.2630    7.8340   26.1520 C.ar  218  TYR218     -0.0009
    184  CE1       16.9200    6.1750   27.9260 C.ar  218  TYR218      0.0417
    185  CE2       17.5820    8.3810   27.2020 C.ar  218  TYR218      0.0417
    186  CZ        16.8800    7.5480   28.0750 C.ar  218  TYR218      0.1957
    187  OH        16.2030    8.1100   29.1250 O.3   218  TYR218     -0.2866
@<TRIPOS>BOND
     1    28    26   ar
     2    27    26   ar
     3    26    25    1
     4    25    24    1
     5    19    18    1
     6    18    17    1
     7    24    21    1
     8    17    16    1
     9    16    15    1
    10    11    12    1
    11    20    21    1
    12    20    13   am
    13    15    12    1
    14    21    22    1
    15    12    13    1
    16    35    33    1
    17    13    14    2
    18    34    33    1
    19    22    29   am
    20    22    23    2
    21    29    30    1
    22    33    30    1
    23    30    31    1
    24    36    31   am
    25    36    37    1
    26     4     3    2
    27     2     1    1
    28     2     3    1
    29     2     5    1
    30    31    32    2
    31    37    38    1
    32    37    40    1
    33    38    39    2
    34     5     6    1
    35    44    42   ar
    36    44    46   ar
    37    42    41   ar
    38    40    41    1
    39    47    46    1
    40    41    43   ar
    41    46    45   ar
    42     6     8   ar
    43     6     7   ar
    44    73    72    1
    45    73    75    1
    46    74    72    1
    47    72    69    1
    48    43    45   ar
    49     8    10   ar
    50     7     9   ar
    51    64    66   ar
    52    64    62   ar
    53    10     9   ar
    54    69    68    1
    55    69    70    1
    56    71    70    2
    57    68    59   am
    58    66    67   ar
    59    61    62    1
    60    61    58    1
    61   126   125    1
    62    62    63   ar
    63    58    59    1
    64    58    57    1
    65    59    60    2
    66    67    65   ar
    67   135   133   ar
    68   135   136   ar
    69   133   132   ar
    70   124   123    2
    71   113   112    1
    72    63    65   ar
    73   125   122    1
    74   136   138   ar
    75   136   134   ar
    76   132   131    1
    77   132   134   ar
    78   138   140   ar
    79   131   128    1
    80   134   137   ar
    81   122   123    1
    82   122   121    1
    83   123   127   am
    84   111   110    2
    85   112   109    1
    86   140   139   ar
    87   117   116    2
    88   110   109    1
    89   137   139   ar
    90   127   128    1
    91   128   129    1
    92   179   178    2
    93   109   108    1
    94   178   177    1
    95   121   116   am
    96   116   115    1
    97   174   172    1
    98   102   101    2
    99   101   100    1
   100   101   103   am
   101   129   141   am
   102   129   130    2
   103   114   115    1
   104   100    99    1
   105   172   173    1
   106   172   169    1
   107   177   176    1
   108   177   180    1
   109   171   170    2
   110   141   142    1
   111   115   118    1
   112   144   143    2
   113   176   170   am
   114   170   169    1
   115   105   104    1
   116   105   106    1
   117   104    97   am
   118   173   175    1
   119   107   106    2
   120   150   151    1
   121   150   149    1
   122   152   151   ar
   123   151   153   ar
   124   118   119    1
   125   118   120    1
   126   143   142    1
   127   143   145   am
   128   169   168    1
   129   180   181    1
   130    99    96    1
   131   146   145    1
   132   146   149    1
   133   146   147    1
   134    96    97    1
   135    96    95    1
   136    97    98    2
   137   168   166   am
   138   181   183   ar
   139   181   182   ar
   140   154   147   am
   141   154   155    1
   142   183   185   ar
   143    92    91    2
   144   147   148    2
   145    95    91   am
   146    91    90    1
   147   182   184   ar
   148   166   167    2
   149   166   165    1
   150   155   156    1
   151   185   186   ar
   152   157   156    2
   153   156   158   am
   154   184   186   ar
   155    56    54   ar
   156   165   164    1
   157   186   187    1
   158    90    89    1
   159    90    93    1
   160   163    94    1
   161   163   162    1
   162    89    86   am
   163    51    50    2
   164    88    85    1
   165    54    53    1
   166    54    55   ar
   167    53    52    1
   168   158   159    1
   169    94    93    1
   170    86    87    2
   171    86    85    1
   172    50    49    1
   173    85    84    1
   174   159   162    1
   175   159   160    1
   176    52    49    1
   177    49    48    1
   178    83    81   ar
   179    82    81   ar
   180    84    78   am
   181    81    80    1
   182   160   161    2
   183    78    79    2
   184    78    77    1
   185    80    77    1
   186    77    76    1
