@<TRIPOS>MOLECULE
tmp/2vh6A00.pdb
 187 186 0 0 0
SMALL
GASTEIGER

@<TRIPOS>ATOM
      1  N         13.8520   11.0400   13.6830 N.3    42  HIS42      -0.1241
      2  CA        12.3810   11.0390   13.6410 C.3    42  HIS42       0.1621
      3  C         11.7620   12.4160   13.9680 C.2    42  HIS42       0.2264
      4  O         10.5540   12.6520   13.7460 O.2    42  HIS42      -0.2867
      5  CB        11.7900    9.9590   14.5470 C.3    42  HIS42       0.0745
      6  CG        11.6890   10.3620   15.9820 C.ar   42  HIS42       0.0817
      7  ND1       12.6370   10.0250   16.9220 N.ar   42  HIS42      -0.2268
      8  CD2       10.7470   11.0760   16.6390 C.ar   42  HIS42       0.1154
      9  CE1       12.2850   10.5160   18.0970 C.ar   42  HIS42       0.1986
     10  NE2       11.1400   11.1580   17.9540 N.ar   42  HIS42      -0.2212
     11  N          8.3440   15.8890   12.3040 N.3    46  GLN46      -0.1245
     12  CA         7.3600   16.4510   13.2270 C.3    46  GLN46       0.1566
     13  C          7.1170   17.9560   13.0320 C.2    46  GLN46       0.2260
     14  O          6.4980   18.6180   13.8790 O.2    46  GLN46      -0.2867
     15  CB         7.7330   16.1140   14.6710 C.3    46  GLN46       0.0367
     16  CG         7.8290   14.6160   14.9330 C.3    46  GLN46       0.0905
     17  CD         7.8940   14.2950   16.4060 C.2    46  GLN46       0.2608
     18  OE1        7.7510   15.1850   17.2530 O.2    46  GLN46      -0.2717
     19  NE2        8.0920   13.0170   16.7290 N.am   46  GLN46      -0.0878
     20  N         10.7950    4.9470    9.7850 N.3    80  LYS80      -0.1231
     21  CA         9.7800    4.9260   10.8400 C.3    80  LYS80       0.1693
     22  C          9.3250    3.5050   11.1740 C.2    80  LYS80       0.2592
     23  O          8.7830    3.2420   12.2570 O.2    80  LYS80      -0.2718
     24  CB         8.5640    5.7700   10.4080 C.3    80  LYS80       0.0285
     25  CG         8.9680    7.1330    9.8270 C.3    80  LYS80       0.0035
     26  CD         7.7960    8.0490    9.5430 C.3    80  LYS80       0.0206
     27  CE         8.3200    9.4360    9.1450 C.3    80  LYS80       0.1093
     28  NZ         7.2420   10.4050    8.7410 N.3    80  LYS80      -0.1314
     29  N          9.5550    2.5890   10.2410 N.am   81  GLU81      -0.1966
     30  CA         9.1140    1.2140   10.4070 C.3    81  GLU81       0.1733
     31  C          9.8930    0.4710   11.4970 C.2    81  GLU81       0.2617
     32  O          9.3410   -0.4060   12.1750 O.2    81  GLU81      -0.2715
     33  CB         9.1990    0.4590    9.0770 C.3    81  GLU81       0.0429
     34  CG         8.1860    0.9190    8.0060 C.3    81  GLU81       0.1163
     35  CD         8.6100    2.1730    7.2430 C.2    81  GLU81       0.3649
     36  OE1        9.7890    2.2450    6.8150 O.co2  81  GLU81      -0.2457
     37  OE2        7.7540    3.0730    7.0460 O.co2  81  GLU81      -0.2457
     38  N         11.1510    0.8480   11.6860 N.am   82  THR82      -0.1937
     39  CA        12.0390    0.1980   12.6360 C.3    82  THR82       0.2028
     40  C         12.5730    1.1200   13.7390 C.2    82  THR82       0.2642
     41  O         12.8960    0.6760   14.8130 O.2    82  THR82      -0.2714
     42  CB        13.2470   -0.3670   11.9460 C.3    82  THR82       0.1808
     43  OG1       13.9040    0.6550   11.2110 O.3    82  THR82      -0.2208
     44  CG2       12.8490   -1.4670   11.0460 C.3    82  THR82       0.0379
     45  N         12.6660    2.3980   13.4200 N.am   83  TYR83      -0.1973
     46  CA        13.2530    3.4040   14.2610 C.3    83  TYR83       0.1639
     47  C         14.7320    3.2350   14.4820 C.2    83  TYR83       0.2290
     48  O         15.2620    3.7790   15.3950 O.2    83  TYR83      -0.2864
     49  CB        12.5170    3.5600   15.5620 C.3    83  TYR83       0.0560
     50  CG        11.5170    4.6620   15.5480 C.ar   83  TYR83      -0.0198
     51  CD1       10.4630    4.6330   14.6870 C.ar   83  TYR83      -0.0009
     52  CD2       11.6060    5.7150   16.4160 C.ar   83  TYR83      -0.0009
     53  CE1        9.5460    5.6130   14.6750 C.ar   83  TYR83       0.0417
     54  CE2       10.6920    6.7110   16.4030 C.ar   83  TYR83       0.0417
     55  CZ         9.6520    6.6530   15.5420 C.ar   83  TYR83       0.1957
     56  OH         8.7300    7.6380   15.5160 O.3    83  TYR83      -0.2866
     57  N          8.9210   -4.4170   20.4840 N.3   160  PHE160     -0.1227
     58  CA         9.5680   -4.1000   19.2120 C.3   160  PHE160      0.1736
     59  C         11.0520   -4.4970   19.2680 C.2   160  PHE160      0.2595
     60  O         11.6190   -4.6870   20.3370 O.2   160  PHE160     -0.2718
     61  CB         9.4130   -2.6090   18.8820 C.3   160  PHE160      0.0547
     62  CG         7.9810   -2.1560   18.7600 C.ar  160  PHE160     -0.0202
     63  CD1        7.2630   -1.7590   19.8860 C.ar  160  PHE160     -0.0042
     64  CD2        7.3550   -2.1220   17.5250 C.ar  160  PHE160     -0.0042
     65  CE1        5.9240   -1.3440   19.7830 C.ar  160  PHE160     -0.0003
     66  CE2        6.0330   -1.7090   17.4090 C.ar  160  PHE160     -0.0003
     67  CZ         5.3160   -1.3190   18.5490 C.ar  160  PHE160     -0.0000
     68  N         11.6760   -4.6430   18.1150 N.am  161  ILE161     -0.1980
     69  CA        13.0750   -5.0840   18.0710 C.3   161  ILE161      0.1595
     70  C         14.0710   -4.0060   18.5260 C.2   161  ILE161      0.2287
     71  O         14.1710   -2.9620   17.8880 O.2   161  ILE161     -0.2864
     72  CB        13.4210   -5.5810   16.6610 C.3   161  ILE161      0.0276
     73  CG1       12.6230   -6.8650   16.3750 C.3   161  ILE161      0.0022
     74  CG2       14.9460   -5.8210   16.5120 C.3   161  ILE161      0.0022
     75  CD1       12.4080   -7.1270   14.9280 C.3   161  ILE161      0.0001
     76  N         10.4750    8.5920   33.7560 N.3   177  ASP177     -0.1225
     77  CA        10.8300    8.3400   32.3590 C.3   177  ASP177      0.1805
     78  C         10.8840    9.6540   31.5590 C.2   177  ASP177      0.2598
     79  O         10.5390   10.7290   32.0560 O.2   177  ASP177     -0.2718
     80  CB         9.7840    7.4120   31.7340 C.3   177  ASP177      0.1424
     81  CG        10.3010    6.6520   30.5240 C.2   177  ASP177      0.3668
     82  OD1       11.5330    6.6730   30.2720 O.co2 177  ASP177     -0.2456
     83  OD2        9.4690    6.0270   29.8250 O.co2 177  ASP177     -0.2456
     84  N         11.3500    9.5550   30.3200 N.am  178  ALA178     -0.1966
     85  CA        11.3270   10.6470   29.3680 C.3   178  ALA178      0.1728
     86  C          9.9390   10.5120   28.7940 C.2   178  ALA178      0.2616
     87  O          9.2710    9.5190   29.0500 O.2   178  ALA178     -0.2715
     88  CB        12.3500   10.4250   28.2790 C.3   178  ALA178      0.0334
     89  N          9.4950   11.4820   28.0050 N.am  179  CYS179     -0.1954
     90  CA         8.1500   11.3990   27.4480 C.3   179  CYS179      0.1843
     91  C          8.0250   12.1960   26.1560 C.2   179  CYS179      0.2625
     92  O          9.0300   12.5550   25.5280 O.2   179  CYS179     -0.2714
     93  CB         7.1360   11.8550   28.5090 C.3   179  CYS179      0.0997
     94  SG         5.4200   11.3700   28.2100 S.3   179  CYS179     -0.0797
     95  N          6.7950   12.4500   25.7320 N.am  180  GLN180     -0.1963
     96  CA         6.5320   13.2250   24.5100 C.3   180  GLN180      0.1733
     97  C          7.0960   14.6630   24.6020 C.2   180  GLN180      0.2616
     98  O          6.8410   15.3730   25.5840 O.2   180  GLN180     -0.2715
     99  CB         5.0210   13.2760   24.2740 C.3   180  GLN180      0.0408
    100  CG         4.6000   13.7840   22.9310 C.3   180  GLN180      0.0908
    101  CD         3.0700   13.8530   22.8060 C.2   180  GLN180      0.2608
    102  OE1        2.5300   14.7800   22.1960 O.2   180  GLN180     -0.2717
    103  NE2        2.3700   12.8840   23.4060 N.am  180  GLN180     -0.0878
    104  N          7.8260   15.0930   23.5680 N.am  181  GLY181     -0.1955
    105  CA         8.4350   16.4280   23.5580 C.3   181  GLY181      0.1869
    106  C          9.9020   16.4080   23.9830 C.2   181  GLY181      0.2309
    107  O         10.6290   17.3880   23.7820 O.2   181  GLY181     -0.2863
    108  N         11.9010   13.7580   22.9900 N.3   183  SER183     -0.1217
    109  CA        12.5910   13.0560   21.9150 C.3   183  SER183      0.1889
    110  C         13.6090   13.9440   21.2360 C.2   183  SER183      0.2288
    111  O         13.3640   15.1420   21.0720 O.2   183  SER183     -0.2866
    112  CB        11.5930   12.5540   20.8670 C.3   183  SER183      0.2089
    113  OG        10.6090   11.7530   21.4920 O.3   183  SER183     -0.2183
    114  N         17.2930   10.8240   23.1100 N.3   201  VAL201     -0.1231
    115  CA        15.9360   10.3430   23.4400 C.3   201  VAL201      0.1692
    116  C         15.2830    9.9100   22.1110 C.2   201  VAL201      0.2593
    117  O         15.2020   10.6930   21.1850 O.2   201  VAL201     -0.2718
    118  CB        15.0990   11.4010   24.1480 C.3   201  VAL201      0.0266
    119  CG1       13.7680   10.7900   24.6010 C.3   201  VAL201      0.0020
    120  CG2       15.8870   11.9450   25.3380 C.3   201  VAL201      0.0020
    121  N         14.8560    8.6470   22.0220 N.am  202  SER202     -0.1938
    122  CA        14.3360    8.1000   20.7530 C.3   202  SER202      0.2055
    123  C         12.8750    7.6320   20.8400 C.2   202  SER202      0.2643
    124  O         12.0040    8.1720   20.1510 O.2   202  SER202     -0.2714
    125  CB        15.2660    6.9490   20.2880 C.3   202  SER202      0.2130
    126  OG        14.9260    6.3830   19.0360 O.3   202  SER202     -0.2179
    127  N         12.6010    6.6230   21.6540 N.am  203  TRP203     -0.1959
    128  CA        11.2210    6.1430   21.7730 C.3   203  TRP203      0.1771
    129  C         10.9420    5.3320   23.0340 C.2   203  TRP203      0.2620
    130  O         11.8570    4.9150   23.7520 O.2   203  TRP203     -0.2715
    131  CB        10.8220    5.3600   20.5270 C.3   203  TRP203      0.0590
    132  CG        11.6480    4.1180   20.2690 C.ar  203  TRP203      0.0006
    133  CD1       12.8280    4.0450   19.5830 C.ar  203  TRP203      0.0946
    134  CD2       11.3250    2.7650   20.6590 C.ar  203  TRP203      0.0152
    135  NE1       13.2680    2.7450   19.5300 N.ar  203  TRP203     -0.2442
    136  CE2       12.3700    1.9380   20.1880 C.ar  203  TRP203      0.0810
    137  CE3       10.2590    2.1780   21.3650 C.ar  203  TRP203      0.0012
    138  CZ2       12.3770    0.5430   20.3890 C.ar  203  TRP203      0.0191
    139  CZ3       10.2710    0.7860   21.5740 C.ar  203  TRP203      0.0001
    140  CH2       11.3110   -0.0110   21.0730 C.ar  203  TRP203      0.0015
    141  N          9.6510    5.1390   23.3090 N.am  204  GLY204     -0.1940
    142  CA         9.2040    4.3310   24.4270 C.3   204  GLY204      0.2014
    143  C          7.7690    3.9150   24.1470 C.2   204  GLY204      0.2639
    144  O          7.1090    4.4930   23.2740 O.2   204  GLY204     -0.2714
    145  N          7.2980    2.8860   24.8490 N.am  205  GLU205     -0.1963
    146  CA         5.8960    2.4430   24.7420 C.3   205  GLU205      0.1733
    147  C          5.1390    3.2000   25.8390 C.2   205  GLU205      0.2617
    148  O          4.9730    2.7150   26.9570 O.2   205  GLU205     -0.2715
    149  CB         5.8180    0.9230   24.8750 C.3   205  GLU205      0.0429
    150  CG         6.5510    0.2110   23.7330 C.3   205  GLU205      0.1163
    151  CD         6.5990   -1.3040   23.8750 C.2   205  GLU205      0.3649
    152  OE1        5.6240   -1.9080   24.3980 O.co2 205  GLU205     -0.2457
    153  OE2        7.6170   -1.8970   23.4400 O.co2 205  GLU205     -0.2457
    154  N          4.7410    4.4290   25.5160 N.am  206  GLY206     -0.1940
    155  CA         4.1330    5.3310   26.4970 C.3   206  GLY206      0.2014
    156  C          5.2290    6.0600   27.2550 C.2   206  GLY206      0.2639
    157  O          6.3120    6.3080   26.7020 O.2   206  GLY206     -0.2714
    158  N          4.9700    6.4110   28.5140 N.am  207  CYS207     -0.1967
    159  CA         5.9700    7.0720   29.3380 C.3   207  CYS207      0.1712
    160  C          5.8780    6.5290   30.7500 C.2   207  CYS207      0.2296
    161  O          4.8470    6.6820   31.4020 O.2   207  CYS207     -0.2864
    162  CB         5.7700    8.5970   29.3750 C.3   207  CYS207      0.0983
    163  SG         5.5110    9.3800   27.8050 S.3   207  CYS207     -0.0798
    164  N         12.8030    3.4290   28.6500 N.3   214  GLY214     -0.1210
    165  CA        13.0420    4.3930   27.5810 C.3   214  GLY214      0.1956
    166  C         14.0830    3.8220   26.6180 C.2   214  GLY214      0.2612
    167  O         15.0410    3.1690   27.0500 O.2   214  GLY214     -0.2717
    168  N         13.8760    4.0410   25.3250 N.am  215  ILE215     -0.1965
    169  CA        14.8030    3.5730   24.3030 C.3   215  ILE215      0.1727
    170  C         15.5130    4.7800   23.6940 C.2   215  ILE215      0.2616
    171  O         14.8800    5.7580   23.2510 O.2   215  ILE215     -0.2715
    172  CB        14.1290    2.7430   23.1900 C.3   215  ILE215      0.0290
    173  CG1       13.0690    1.7770   23.7790 C.3   215  ILE215      0.0022
    174  CG2       15.2030    1.9870   22.3860 C.3   215  ILE215      0.0023
    175  CD1       13.6150    0.7140   24.7510 C.3   215  ILE215      0.0001
    176  N         16.8300    4.6610   23.6520 N.am  216  TYR216     -0.1974
    177  CA        17.7300    5.7630   23.3060 C.3   216  TYR216      0.1639
    178  C         18.6170    5.3760   22.1370 C.2   216  TYR216      0.2290
    179  O         19.0170    4.2430   22.0490 O.2   216  TYR216     -0.2864
    180  CB        18.6140    6.0620   24.5440 C.3   216  TYR216      0.0560
    181  CG        17.8170    6.6190   25.6950 C.ar  216  TYR216     -0.0198
    182  CD1       17.1550    5.7700   26.6030 C.ar  216  TYR216     -0.0009
    183  CD2       17.6850    7.9890   25.8520 C.ar  216  TYR216     -0.0009
    184  CE1       16.3780    6.2910   27.6350 C.ar  216  TYR216      0.0417
    185  CE2       16.9090    8.5260   26.8590 C.ar  216  TYR216      0.0417
    186  CZ        16.2590    7.6610   27.7520 C.ar  216  TYR216      0.1957
    187  OH        15.5290    8.1930   28.7500 O.3   216  TYR216     -0.2866
@<TRIPOS>BOND
     1    36    35   ar
     2    37    35   ar
     3    35    34    1
     4    34    33    1
     5    28    27    1
     6    33    30    1
     7    27    26    1
     8    26    25    1
     9    20    21    1
    10    25    24    1
    11    29    30    1
    12    29    22   am
    13    30    31    1
    14    24    21    1
    15    21    22    1
    16    44    42    1
    17    22    23    2
    18    43    42    1
    19    31    38   am
    20    31    32    2
    21    38    39    1
    22    42    39    1
    23    11    12    1
    24    39    40    1
    25    13    12    1
    26    13    14    2
    27    12    15    1
    28    45    40   am
    29    45    46    1
    30     2     1    1
    31     2     3    1
    32     2     5    1
    33    40    41    2
    34     4     3    2
    35    46    47    1
    36    46    49    1
    37    47    48    2
    38     5     6    1
    39    15    16    1
    40    53    51   ar
    41    53    55   ar
    42    51    50   ar
    43    75    73    1
    44    16    17    1
    45    56    55    1
    46    55    54   ar
    47    50    49    1
    48    50    52   ar
    49     6     8   ar
    50     6     7   ar
    51    73    72    1
    52    54    52   ar
    53    17    19   am
    54    17    18    2
    55    74    72    1
    56     8    10   ar
    57    72    69    1
    58     7     9   ar
    59    66    64   ar
    60    66    67   ar
    61    64    62   ar
    62    71    70    2
    63    10     9   ar
    64    69    68    1
    65    69    70    1
    66    68    59   am
    67    67    65   ar
    68    62    61    1
    69    62    63   ar
    70    61    58    1
    71   126   125    1
    72    58    59    1
    73    58    57    1
    74    59    60    2
    75   135   133   ar
    76   135   136   ar
    77   133   132   ar
    78    65    63   ar
    79   124   123    2
    80   136   138   ar
    81   136   134   ar
    82   132   131    1
    83   132   134   ar
    84   125   122    1
    85   138   140   ar
    86   131   128    1
    87   134   137   ar
    88   122   123    1
    89   122   121    1
    90   123   127   am
    91   112   113    1
    92   112   109    1
    93   111   110    2
    94   140   139   ar
    95   117   116    2
    96   110   109    1
    97   137   139   ar
    98   127   128    1
    99   128   129    1
   100   109   108    1
   101   121   116   am
   102   179   178    2
   103   116   115    1
   104   178   177    1
   105   102   101    2
   106   174   172    1
   107   101   100    1
   108   101   103   am
   109   100    99    1
   110   129   141   am
   111   129   130    2
   112   114   115    1
   113   172   173    1
   114   172   169    1
   115   171   170    2
   116   144   143    2
   117   177   176    1
   118   177   180    1
   119   141   142    1
   120   153   151   ar
   121   115   118    1
   122   105   104    1
   123   105   106    1
   124   104    97   am
   125   176   170   am
   126   170   169    1
   127   150   151    1
   128   150   149    1
   129   173   175    1
   130   107   106    2
   131   151   152   ar
   132   143   142    1
   133   143   145   am
   134   118   119    1
   135   118   120    1
   136    99    96    1
   137   169   168    1
   138    96    97    1
   139    96    95    1
   140   180   181    1
   141    97    98    2
   142   146   145    1
   143   146   149    1
   144   146   147    1
   145   168   166   am
   146   154   147   am
   147   154   155    1
   148    92    91    2
   149   181   183   ar
   150   181   182   ar
   151    95    91   am
   152   147   148    2
   153   183   185   ar
   154    91    90    1
   155   155   156    1
   156   182   184   ar
   157   166   167    2
   158   166   165    1
   159   157   156    2
   160   185   186   ar
   161   156   158   am
   162    90    89    1
   163    90    93    1
   164   165   164    1
   165   184   186   ar
   166   186   187    1
   167   163    94    1
   168   163   162    1
   169    89    86   am
   170    94    93    1
   171    88    85    1
   172   158   159    1
   173    86    87    2
   174    86    85    1
   175   159   162    1
   176   159   160    1
   177    85    84    1
   178    83    81   ar
   179    82    81   ar
   180    84    78   am
   181    81    80    1
   182   160   161    2
   183    78    79    2
   184    78    77    1
   185    80    77    1
   186    77    76    1
