@<TRIPOS>MOLECULE
tmp/2vh9B04.pdb
 86 84 0 0 0
SMALL
GASTEIGER

@<TRIPOS>ATOM
      1  N         22.2270   42.5190   69.0110 N.3    27  TRP27      -0.1227
      2  CA        22.0710   42.5170   70.4640 C.3    27  TRP27       0.1737
      3  C         23.3720   42.9080   71.1620 C.2    27  TRP27       0.2596
      4  O         24.4550   42.7410   70.6150 O.2    27  TRP27      -0.2718
      5  CB        21.6080   41.1380   70.9610 C.3    27  TRP27       0.0564
      6  CG        22.5950   40.0120   70.7970 C.ar   27  TRP27       0.0003
      7  CD1       22.8190   39.2780   69.6640 C.ar   27  TRP27       0.0946
      8  CD2       23.4530   39.4590   71.8010 C.ar   27  TRP27       0.0152
      9  NE1       23.7690   38.3290   69.8980 N.ar   27  TRP27      -0.2442
     10  CE2       24.1820   38.4170   71.1980 C.ar   27  TRP27       0.0810
     11  CE3       23.6790   39.7430   73.1560 C.ar   27  TRP27       0.0012
     12  CZ2       25.1170   37.6480   71.9020 C.ar   27  TRP27       0.0191
     13  CZ3       24.5900   38.9800   73.8530 C.ar   27  TRP27       0.0001
     14  CH2       25.3040   37.9430   73.2230 C.ar   27  TRP27       0.0015
     15  N         23.2490   43.3940   72.3900 N.am   28  GLY28      -0.1957
     16  CA        24.3900   43.8870   73.1550 C.3    28  GLY28       0.1869
     17  C         25.1150   45.0280   72.4550 C.2    28  GLY28       0.2309
     18  O         26.3280   44.9520   72.2500 O.2    28  GLY28      -0.2863
     19  N         25.8760   47.9080   73.5820 N.3    30  GLN30      -0.1245
     20  CA        26.8560   48.4510   74.5270 C.3    30  GLN30       0.1566
     21  C         28.1700   47.6570   74.5680 C.2    30  GLN30       0.2260
     22  O         29.1250   48.0860   75.2280 O.2    30  GLN30      -0.2867
     23  CB        26.2420   48.5330   75.9440 C.3    30  GLN30       0.0367
     24  CG        26.1680   47.1770   76.7540 C.3    30  GLN30       0.0905
     25  CD        25.0280   46.2000   76.3910 C.2    30  GLN30       0.2608
     26  OE1       24.7890   45.2490   77.1260 O.2    30  GLN30      -0.2717
     27  NE2       24.3380   46.4300   75.3010 N.am   30  GLN30      -0.0878
     28  N         32.4470   40.0800   75.2640 N.3    43  LEU43      -0.1231
     29  CA        31.7050   39.3540   76.2710 C.3    43  LEU43       0.1693
     30  C         32.2780   39.6100   77.6640 C.2    43  LEU43       0.2592
     31  O         33.4840   39.5040   77.8860 O.2    43  LEU43      -0.2718
     32  CB        31.7700   37.8570   75.9640 C.3    43  LEU43       0.0284
     33  CG        31.2060   36.8780   77.0010 C.3    43  LEU43       0.0019
     34  CD1       29.6840   36.9340   76.9820 C.3    43  LEU43       0.0001
     35  CD2       31.6960   35.4640   76.7850 C.3    43  LEU43       0.0001
     36  N         31.3930   39.9510   78.5970 N.am   44  ASP44      -0.1960
     37  CA        31.6830   39.9160   80.0340 C.3    44  ASP44       0.1840
     38  C         30.4960   39.2380   80.7240 C.2    44  ASP44       0.2623
     39  O         29.6200   38.6830   80.0550 O.2    44  ASP44      -0.2715
     40  CB        31.9940   41.3150   80.6130 C.3    44  ASP44       0.1450
     41  CG        30.8120   42.2940   80.5680 C.2    44  ASP44       0.3671
     42  OD1       29.6180   41.9170   80.4230 O.co2  44  ASP44      -0.2456
     43  OD2       31.0970   43.4940   80.6730 O.co2  44  ASP44      -0.2456
     44  N         30.4710   39.2840   82.0500 N.am   45  SER45      -0.1936
     45  CA        29.5060   38.5050   82.8410 C.3    45  SER45       0.2055
     46  C         28.0860   39.0460   82.7230 C.2    45  SER45       0.2644
     47  O         27.1410   38.3850   83.1900 O.2    45  SER45      -0.2714
     48  CB        29.9160   38.4860   84.3210 C.3    45  SER45       0.2130
     49  OG        29.7680   39.7890   84.8480 O.3    45  SER45      -0.2179
     50  N         27.9250   40.2310   82.1250 N.am   46  THR46      -0.1936
     51  CA        26.5990   40.8040   81.9070 C.3    46  THR46       0.2028
     52  C         25.9970   40.5470   80.5140 C.2    46  THR46       0.2643
     53  O         24.7680   40.5110   80.3780 O.2    46  THR46      -0.2714
     54  CB        26.5900   42.3460   82.1290 C.3    46  THR46       0.1808
     55  OG1       27.3700   43.0000   81.1160 O.3    46  THR46      -0.2208
     56  CG2       27.1400   42.6950   83.4860 C.3    46  THR46       0.0379
     57  N         26.8470   40.4100   79.4890 N.am   47  SER47      -0.1935
     58  CA        26.3870   40.3000   78.0940 C.3    47  SER47       0.2055
     59  C         27.5550   40.0280   77.1550 C.2    47  SER47       0.2643
     60  O         28.6770   40.4300   77.4200 O.2    47  SER47      -0.2714
     61  CB        25.6700   41.5810   77.6030 C.3    47  SER47       0.2130
     62  OG        24.9800   41.3630   76.3660 O.3    47  SER47      -0.2179
     63  N         27.2730   39.2860   76.0950 N.am   48  GLY48      -0.1954
     64  CA        28.1090   39.2620   74.9050 C.3    48  GLY48       0.1869
     65  C         27.5980   40.2820   73.9050 C.2    48  GLY48       0.2309
     66  O         26.9770   41.2750   74.2830 O.2    48  GLY48      -0.2863
     67  N         28.9260   33.0530   75.4720 N.3   181  ASP181     -0.1239
     68  CA        29.2900   32.0420   76.4370 C.3   181  ASP181      0.1674
     69  C         28.5620   30.7550   76.1070 C.2   181  ASP181      0.2266
     70  O         27.3330   30.6420   76.3380 O.2   181  ASP181     -0.2867
     71  CB        28.8860   32.5320   77.8230 C.3   181  ASP181      0.1410
     72  CG        29.2540   31.5600   78.9250 C.2   181  ASP181      0.3668
     73  OD1       29.5450   30.3700   78.6350 O.co2 181  ASP181     -0.2456
     74  OD2       29.2630   32.0080   80.0840 O.co2 181  ASP181     -0.2456
     75  N         35.1100   34.1940   84.1810 N.3   196  TYR196     -0.1241
     76  CA        34.9790   35.6220   83.9530 C.3   196  TYR196      0.1605
     77  C         36.0310   36.4670   84.6700 C.2   196  TYR196      0.2264
     78  O         36.0530   37.6700   84.4830 O.2   196  TYR196     -0.2867
     79  CB        33.5570   36.0970   84.2690 C.3   196  TYR196      0.0534
     80  CG        32.5940   35.6760   83.1810 C.ar  196  TYR196     -0.0201
     81  CD1       31.9200   34.4630   83.2480 C.ar  196  TYR196     -0.0009
     82  CD2       32.4100   36.4600   82.0570 C.ar  196  TYR196     -0.0009
     83  CE1       31.0620   34.0650   82.2230 C.ar  196  TYR196      0.0417
     84  CE2       31.5720   36.0810   81.0580 C.ar  196  TYR196      0.0417
     85  CZ        30.9000   34.8860   81.1360 C.ar  196  TYR196      0.1957
     86  OH        30.0580   34.5290   80.1100 O.3   196  TYR196     -0.2866
@<TRIPOS>BOND
     1     1     2    1
     2     7     9   ar
     3     7     6   ar
     4     9    10   ar
     5     2     5    1
     6     2     3    1
     7     4     3    2
     8     6     5    1
     9     6     8   ar
    10     3    15   am
    11    10     8   ar
    12    10    12   ar
    13     8    11   ar
    14    12    14   ar
    15    18    17    2
    16    15    16    1
    17    17    16    1
    18    11    13   ar
    19    14    13   ar
    20    19    20    1
    21    65    66    2
    22    65    64    1
    23    20    21    1
    24    20    23    1
    25    21    22    2
    26    64    63    1
    27    28    29    1
    28    27    25   am
    29    67    68    1
    30    23    24    1
    31    32    29    1
    32    32    33    1
    33    63    59   am
    34    69    70    2
    35    69    68    1
    36    29    30    1
    37    62    61    1
    38    25    24    1
    39    25    26    2
    40    68    71    1
    41    35    33    1
    42    34    33    1
    43    59    60    2
    44    59    58    1
    45    61    58    1
    46    30    31    2
    47    30    36   am
    48    71    72    1
    49    58    57    1
    50    36    37    1
    51    73    72   ar
    52    72    74   ar
    53    57    52   am
    54    37    40    1
    55    37    38    1
    56    39    38    2
    57    86    85    1
    58    53    52    2
    59    42    41   ar
    60    52    51    1
    61    41    40    1
    62    41    43   ar
    63    38    44   am
    64    84    85   ar
    65    84    82   ar
    66    55    54    1
    67    85    83   ar
    68    51    50    1
    69    51    54    1
    70    44    45    1
    71    82    80   ar
    72    50    46   am
    73    54    56    1
    74    83    81   ar
    75    46    45    1
    76    46    47    2
    77    45    48    1
    78    80    81   ar
    79    80    79    1
    80    76    75    1
    81    76    79    1
    82    76    77    1
    83    48    49    1
    84    78    77    2
