@<TRIPOS>MOLECULE
tmp/2vh9B01.pdb
 115 110 0 0 0
SMALL
GASTEIGER

@<TRIPOS>ATOM
      1  N         32.7940   31.3220   72.4410 N.3    77  ILE77      -0.1245
      2  CA        32.7190   31.1660   71.0130 C.3    77  ILE77       0.1561
      3  C         32.6470   32.5290   70.3160 C.2    77  ILE77       0.2260
      4  O         31.8370   33.3940   70.6620 O.2    77  ILE77      -0.2867
      5  CB        31.4970   30.3480   70.5980 C.3    77  ILE77       0.0252
      6  CG1       31.6860   28.8760   71.0050 C.3    77  ILE77       0.0019
      7  CG2       31.2440   30.4830   69.0850 C.3    77  ILE77       0.0019
      8  CD1       30.5120   28.0240   70.7350 C.3    77  ILE77       0.0001
      9  N         31.9770   33.8310   66.5100 N.3    79  SER79      -0.1217
     10  CA        31.3110   33.2070   65.3720 C.3    79  SER79       0.1889
     11  C         31.2110   34.1290   64.1500 C.2    79  SER79       0.2288
     12  O         31.3040   35.3680   64.2550 O.2    79  SER79      -0.2866
     13  CB        29.9160   32.7170   65.7890 C.3    79  SER79       0.2089
     14  OG        29.0700   33.8210   66.0080 O.3    79  SER79      -0.2183
     15  N         28.6800   33.3320   60.6820 N.3    81  TYR81      -0.1241
     16  CA        27.8010   32.2970   60.1270 C.3    81  TYR81       0.1605
     17  C         26.6020   32.8350   59.3470 C.2    81  TYR81       0.2264
     18  O         26.2620   34.0100   59.4310 O.2    81  TYR81      -0.2867
     19  CB        27.3240   31.3610   61.2560 C.3    81  TYR81       0.0534
     20  CG        26.4280   31.9970   62.2870 C.ar   81  TYR81      -0.0201
     21  CD1       26.9610   32.7890   63.3110 C.ar   81  TYR81      -0.0009
     22  CD2       25.0450   31.8030   62.2530 C.ar   81  TYR81      -0.0009
     23  CE1       26.1390   33.3670   64.2730 C.ar   81  TYR81       0.0417
     24  CE2       24.2090   32.3620   63.2130 C.ar   81  TYR81       0.0417
     25  CZ        24.7550   33.1490   64.2190 C.ar   81  TYR81       0.1957
     26  OH        23.9360   33.7280   65.1530 O.3    81  TYR81      -0.2866
     27  N         15.2700   25.4420   61.3780 N.3    92  HIS92      -0.1241
     28  CA        15.9450   26.3790   60.4880 C.3    92  HIS92       0.1621
     29  C         17.2080   25.7880   59.7970 C.2    92  HIS92       0.2264
     30  O         17.6220   24.6630   60.0570 O.2    92  HIS92      -0.2867
     31  CB        16.3260   27.6300   61.2920 C.3    92  HIS92       0.0745
     32  CG        17.4780   27.4170   62.2240 C.ar   92  HIS92       0.0817
     33  ND1       17.3080   27.0770   63.5470 N.ar   92  HIS92      -0.2268
     34  CD2       18.8150   27.4960   62.0250 C.ar   92  HIS92       0.1154
     35  CE1       18.4910   26.9380   64.1160 C.ar   92  HIS92       0.1986
     36  NE2       19.4220   27.1760   63.2090 N.ar   92  HIS92      -0.2212
     37  N         21.3930   26.5780   58.6500 N.3    94  GLU94      -0.1245
     38  CA        22.5600   27.3020   59.1170 C.3    94  GLU94       0.1567
     39  C         23.8320   26.8140   58.3920 C.2    94  GLU94       0.2260
     40  O         23.9530   25.6430   58.0270 O.2    94  GLU94      -0.2867
     41  CB        22.6920   27.0710   60.6300 C.3    94  GLU94       0.0388
     42  CG        23.0110   28.2770   61.4130 C.3    94  GLU94       0.1160
     43  CD        23.1070   28.0340   62.9210 C.2    94  GLU94       0.3649
     44  OE1       22.2170   27.2990   63.4730 O.co2  94  GLU94      -0.2457
     45  OE2       24.0870   28.5950   63.5430 O.co2  94  GLU94      -0.2457
     46  N         27.9770   27.4050   59.3390 N.3    96  ASP96      -0.1239
     47  CA        28.6670   27.9900   60.4770 C.3    96  ASP96       0.1674
     48  C         30.1750   27.9090   60.3680 C.2    96  ASP96       0.2266
     49  O         30.7250   26.8810   59.9800 O.2    96  ASP96      -0.2867
     50  CB        28.3100   27.2600   61.7750 C.3    96  ASP96       0.1410
     51  CG        26.8290   27.2720   62.1010 C.2    96  ASP96       0.3668
     52  OD1       26.1720   28.3480   62.0970 O.co2  96  ASP96      -0.2456
     53  OD2       26.3500   26.1700   62.4500 O.co2  96  ASP96      -0.2456
     54  N         32.7080   28.6170   63.5910 N.3    98  GLU98      -0.1245
     55  CA        32.7440   28.9060   65.0050 C.3    98  GLU98       0.1567
     56  C         34.1630   28.6840   65.5060 C.2    98  GLU98       0.2260
     57  O         34.7570   27.6210   65.2800 O.2    98  GLU98      -0.2867
     58  CB        31.7530   27.9970   65.7510 C.3    98  GLU98       0.0388
     59  CG        30.2770   28.3630   65.5230 C.3    98  GLU98       0.1160
     60  CD        29.3190   27.3450   66.1210 C.2    98  GLU98       0.3649
     61  OE1       29.1850   26.2340   65.5540 O.co2  98  GLU98      -0.2457
     62  OE2       28.6720   27.6710   67.1370 O.co2  98  GLU98      -0.2457
     63  N         30.0320   23.7490   60.3080 N.3   113  ASN113     -0.1240
     64  CA        28.8250   22.9530   60.4460 C.3   113  ASN113      0.1653
     65  C         27.7740   23.3750   59.4290 C.2   113  ASN113      0.2266
     66  O         27.7640   24.5020   58.9420 O.2   113  ASN113     -0.2867
     67  CB        28.2750   23.1070   61.8720 C.3   113  ASN113      0.1155
     68  CG        27.3980   21.9180   62.3420 C.2   113  ASN113      0.2627
     69  OD1       27.1560   20.9350   61.6290 O.2   113  ASN113     -0.2716
     70  ND2       26.9460   22.0150   63.5750 N.am  113  ASN113     -0.0877
     71  N         23.4270   23.0260   59.0110 N.3   115  PHE115     -0.1241
     72  CA        22.0960   22.6520   59.5060 C.3   115  PHE115      0.1605
     73  C         21.0870   22.7910   58.3880 C.2   115  PHE115      0.2264
     74  O         21.0440   23.8240   57.7060 O.2   115  PHE115     -0.2867
     75  CB        21.5980   23.5950   60.6070 C.3   115  PHE115      0.0534
     76  CG        22.0530   23.2560   61.9710 C.ar  115  PHE115     -0.0203
     77  CD1       23.3620   23.4900   62.3530 C.ar  115  PHE115     -0.0042
     78  CD2       21.1720   22.7630   62.8990 C.ar  115  PHE115     -0.0042
     79  CE1       23.7930   23.2040   63.6580 C.ar  115  PHE115     -0.0003
     80  CE2       21.5810   22.4710   64.1950 C.ar  115  PHE115     -0.0003
     81  CZ        22.8950   22.6770   64.5740 C.ar  115  PHE115     -0.0000
     82  N         28.8430   36.7270   66.4170 N.3   178  SER178     -0.1217
     83  CA        28.6720   36.9280   67.8370 C.3   178  SER178      0.1889
     84  C         29.9120   36.5360   68.6420 C.2   178  SER178      0.2288
     85  O         30.7740   35.8080   68.1660 O.2   178  SER178     -0.2866
     86  CB        27.4680   36.1130   68.3410 C.3   178  SER178      0.2089
     87  OG        27.6250   34.7330   68.0370 O.3   178  SER178     -0.2183
     88  N         29.9460   34.9170   72.5290 N.3   180  TRP180     -0.1241
     89  CA        29.0170   34.4450   73.5390 C.3   180  TRP180      0.1605
     90  C         29.5910   33.2880   74.3520 C.2   180  TRP180      0.2264
     91  O         30.5780   32.6400   73.9650 O.2   180  TRP180     -0.2867
     92  CB        27.6600   34.0630   72.9400 C.3   180  TRP180      0.0550
     93  CG        27.6510   32.8820   71.9880 C.ar  180  TRP180      0.0003
     94  CD1       28.2050   32.8350   70.7330 C.ar  180  TRP180      0.0946
     95  CD2       27.0400   31.5870   72.2010 C.ar  180  TRP180      0.0152
     96  NE1       27.9900   31.6060   70.1640 N.ar  180  TRP180     -0.2442
     97  CE2       27.2610   30.8260   71.0290 C.ar  180  TRP180      0.0810
     98  CE3       26.3120   31.0030   73.2650 C.ar  180  TRP180      0.0012
     99  CZ2       26.8070   29.5030   70.8980 C.ar  180  TRP180      0.0191
    100  CZ3       25.8320   29.7010   73.1270 C.ar  180  TRP180      0.0001
    101  CH2       26.0860   28.9580   71.9460 C.ar  180  TRP180      0.0015
    102  N         29.4390   23.3140   75.9380 N.3   185  TRP185     -0.1241
    103  CA        30.0360   22.4500   74.8980 C.3   185  TRP185      0.1605
    104  C         31.2680   22.9470   74.1190 C.2   185  TRP185      0.2264
    105  O         31.9180   22.1450   73.4160 O.2   185  TRP185     -0.2867
    106  CB        28.9620   22.0990   73.8760 C.3   185  TRP185      0.0550
    107  CG        28.4410   23.2700   73.0910 C.ar  185  TRP185      0.0003
    108  CD1       27.3990   24.0700   73.4240 C.ar  185  TRP185      0.0946
    109  CD2       28.9230   23.7380   71.8330 C.ar  185  TRP185      0.0152
    110  NE1       27.1950   25.0130   72.4590 N.ar  185  TRP185     -0.2442
    111  CE2       28.1190   24.8320   71.4650 C.ar  185  TRP185      0.0810
    112  CE3       29.9450   23.3240   70.9640 C.ar  185  TRP185      0.0012
    113  CZ2       28.3050   25.5300   70.2690 C.ar  185  TRP185      0.0191
    114  CZ3       30.1300   24.0130   69.7760 C.ar  185  TRP185      0.0001
    115  CH2       29.3150   25.1010   69.4410 C.ar  185  TRP185      0.0015
@<TRIPOS>BOND
     1    74    73    2
     2    40    39    2
     3    73    72    1
     4    39    38    1
     5    37    38    1
     6    66    65    2
     7    71    72    1
     8    38    41    1
     9    46    47    1
    10    17    18    2
    11    17    16    1
    12    65    64    1
    13    72    75    1
    14    29    30    2
    15    29    28    1
    16    49    48    2
    17    16    15    1
    18    16    19    1
    19    63    64    1
    20    48    47    1
    21    64    67    1
    22    47    50    1
    23    28    31    1
    24    28    27    1
    25    75    76    1
    26    41    42    1
    27    19    20    1
    28    31    32    1
    29    42    43    1
    30    69    68    2
    31    50    51    1
    32    67    68    1
    33    76    77   ar
    34    76    78   ar
    35    34    32   ar
    36    34    36   ar
    37    52    51   ar
    38    51    53   ar
    39    32    33   ar
    40    22    20   ar
    41    22    24   ar
    42    20    21   ar
    43    68    70   am
    44    77    79   ar
    45    78    80   ar
    46    43    44   ar
    47    43    45   ar
    48    36    35   ar
    49    24    25   ar
    50    21    23   ar
    51    33    35   ar
    52    54    55    1
    53    79    81   ar
    54    11    12    2
    55    11    10    1
    56    80    81   ar
    57    25    23   ar
    58    25    26    1
    59    55    56    1
    60    55    58    1
    61    57    56    2
    62    10    13    1
    63    10     9    1
    64    59    58    1
    65    59    60    1
    66    61    60   ar
    67    13    14    1
    68    60    62   ar
    69    82    83    1
    70    83    86    1
    71    83    84    1
    72    87    86    1
    73    85    84    2
    74     7     5    1
    75   115   114   ar
    76   115   113   ar
    77   114   112   ar
    78    96    94   ar
    79    96    97   ar
    80   113   111   ar
    81     3     4    2
    82     3     2    1
    83     5     6    1
    84     5     2    1
    85    94    93   ar
    86     8     6    1
    87    99    97   ar
    88    99   101   ar
    89   112   109   ar
    90     2     1    1
    91    97    95   ar
    92   111   109   ar
    93   111   110   ar
    94   109   107   ar
    95   101   100   ar
    96    93    95   ar
    97    93    92    1
    98    95    98   ar
    99   110   108   ar
   100    88    89    1
   101    92    89    1
   102   107   108   ar
   103   107   106    1
   104   100    98   ar
   105   105   104    2
   106    89    90    1
   107   106   103    1
   108    91    90    2
   109   104   103    1
   110   103   102    1
