@<TRIPOS>MOLECULE
tmp/2vh9B03.pdb
 101 100 0 0 0
SMALL
GASTEIGER

@<TRIPOS>ATOM
      1  N         22.7010   43.4490   66.4390 N.3    26  LEU26      -0.1231
      2  CA        21.5100   42.6510   66.6850 C.3    26  LEU26       0.1693
      3  C         21.1950   42.6770   68.1770 C.2    26  LEU26       0.2592
      4  O         20.0370   42.8140   68.5620 O.2    26  LEU26      -0.2718
      5  CB        21.7330   41.2040   66.1910 C.3    26  LEU26       0.0284
      6  CG        20.6650   40.1420   66.4730 C.3    26  LEU26       0.0019
      7  CD1       19.3170   40.5720   65.9010 C.3    26  LEU26       0.0001
      8  CD2       21.0860   38.7990   65.9040 C.3    26  LEU26       0.0001
      9  N         22.2270   42.5190   69.0110 N.am   27  TRP27      -0.1976
     10  CA        22.0710   42.5170   70.4640 C.3    27  TRP27       0.1640
     11  C         23.3720   42.9080   71.1620 C.2    27  TRP27       0.2290
     12  O         24.4550   42.7410   70.6150 O.2    27  TRP27      -0.2864
     13  CB        21.6080   41.1380   70.9610 C.3    27  TRP27       0.0576
     14  CG        22.5950   40.0120   70.7970 C.ar   27  TRP27       0.0006
     15  CD1       22.8190   39.2780   69.6640 C.ar   27  TRP27       0.0946
     16  CD2       23.4530   39.4590   71.8010 C.ar   27  TRP27       0.0152
     17  NE1       23.7690   38.3290   69.8980 N.ar   27  TRP27      -0.2442
     18  CE2       24.1820   38.4170   71.1980 C.ar   27  TRP27       0.0810
     19  CE3       23.6790   39.7430   73.1560 C.ar   27  TRP27       0.0012
     20  CZ2       25.1170   37.6480   71.9020 C.ar   27  TRP27       0.0191
     21  CZ3       24.5900   38.9800   73.8530 C.ar   27  TRP27       0.0001
     22  CH2       25.3040   37.9430   73.2230 C.ar   27  TRP27       0.0015
     23  N         26.8470   40.4100   79.4890 N.3    47  SER47      -0.1202
     24  CA        26.3870   40.3000   78.0940 C.3    47  SER47       0.2020
     25  C         27.5550   40.0280   77.1550 C.2    47  SER47       0.2619
     26  O         28.6770   40.4300   77.4200 O.2    47  SER47      -0.2717
     27  CB        25.6700   41.5810   77.6030 C.3    47  SER47       0.2103
     28  OG        24.9800   41.3630   76.3660 O.3    47  SER47      -0.2182
     29  N         27.2730   39.2860   76.0950 N.am   48  GLY48      -0.1956
     30  CA        28.1090   39.2620   74.9050 C.3    48  GLY48       0.1869
     31  C         27.5980   40.2820   73.9050 C.2    48  GLY48       0.2309
     32  O         26.9770   41.2750   74.2830 O.2    48  GLY48      -0.2863
     33  N         28.6800   33.3320   60.6820 N.3    81  TYR81      -0.1241
     34  CA        27.8010   32.2970   60.1270 C.3    81  TYR81       0.1605
     35  C         26.6020   32.8350   59.3470 C.2    81  TYR81       0.2264
     36  O         26.2620   34.0100   59.4310 O.2    81  TYR81      -0.2867
     37  CB        27.3240   31.3610   61.2560 C.3    81  TYR81       0.0534
     38  CG        26.4280   31.9970   62.2870 C.ar   81  TYR81      -0.0201
     39  CD1       26.9610   32.7890   63.3110 C.ar   81  TYR81      -0.0009
     40  CD2       25.0450   31.8030   62.2530 C.ar   81  TYR81      -0.0009
     41  CE1       26.1390   33.3670   64.2730 C.ar   81  TYR81       0.0417
     42  CE2       24.2090   32.3620   63.2130 C.ar   81  TYR81       0.0417
     43  CZ        24.7550   33.1490   64.2190 C.ar   81  TYR81       0.1957
     44  OH        23.9360   33.7280   65.1530 O.3    81  TYR81      -0.2866
     45  N         17.4500   31.1940   61.4420 N.3    85  ASN85      -0.1225
     46  CA        16.8100   30.8070   62.7130 C.3    85  ASN85       0.1785
     47  C         15.6890   31.7240   63.2250 C.2    85  ASN85       0.2597
     48  O         14.8110   31.2650   63.9510 O.2    85  ASN85      -0.2718
     49  CB        17.8530   30.6210   63.8250 C.3    85  ASN85       0.1169
     50  CG        18.3350   31.9380   64.4280 C.2    85  ASN85       0.2627
     51  OD1       18.0720   32.2360   65.6030 O.2    85  ASN85      -0.2716
     52  ND2       19.0430   32.7180   63.6420 N.am   85  ASN85      -0.0877
     53  N         15.7500   33.0130   62.8870 N.am   86  GLN86      -0.1979
     54  CA        14.7150   33.9680   63.2700 C.3    86  GLN86       0.1601
     55  C         13.5340   33.9420   62.3080 C.2    86  GLN86       0.2287
     56  O         12.4610   34.4550   62.6350 O.2    86  GLN86      -0.2864
     57  CB        15.2690   35.3960   63.3440 C.3    86  GLN86       0.0394
     58  CG        16.3360   35.6060   64.3940 C.3    86  GLN86       0.0908
     59  CD        16.8360   37.0370   64.4150 C.2    86  GLN86       0.2608
     60  OE1       16.4830   37.8130   65.3050 O.2    86  GLN86      -0.2717
     61  NE2       17.6390   37.4020   63.4130 N.am   86  GLN86      -0.0878
     62  N         25.4110   36.4830   60.2650 N.3   176  TYR176     -0.1241
     63  CA        25.4880   36.8360   61.6700 C.3   176  TYR176      0.1605
     64  C         26.9040   36.6270   62.1760 C.2   176  TYR176      0.2264
     65  O         27.6770   35.8490   61.6220 O.2   176  TYR176     -0.2867
     66  CB        24.5910   35.9340   62.5150 C.3   176  TYR176      0.0534
     67  CG        23.0860   35.9930   62.2960 C.ar  176  TYR176     -0.0201
     68  CD1       22.4770   35.2010   61.3310 C.ar  176  TYR176     -0.0009
     69  CD2       22.2650   36.7700   63.1120 C.ar  176  TYR176     -0.0009
     70  CE1       21.1130   35.2240   61.1420 C.ar  176  TYR176      0.0417
     71  CE2       20.8650   36.7800   62.9390 C.ar  176  TYR176      0.0417
     72  CZ        20.3100   36.0210   61.9500 C.ar  176  TYR176      0.1957
     73  OH        18.9600   36.0040   61.7420 O.3   176  TYR176     -0.2866
     74  N         28.8430   36.7270   66.4170 N.3   178  SER178     -0.1217
     75  CA        28.6720   36.9280   67.8370 C.3   178  SER178      0.1889
     76  C         29.9120   36.5360   68.6420 C.2   178  SER178      0.2288
     77  O         30.7740   35.8080   68.1660 O.2   178  SER178     -0.2866
     78  CB        27.4680   36.1130   68.3410 C.3   178  SER178      0.2089
     79  OG        27.6250   34.7330   68.0370 O.3   178  SER178     -0.2183
     80  N         29.9460   34.9170   72.5290 N.3   180  TRP180     -0.1227
     81  CA        29.0170   34.4450   73.5390 C.3   180  TRP180      0.1737
     82  C         29.5910   33.2880   74.3520 C.2   180  TRP180      0.2595
     83  O         30.5780   32.6400   73.9650 O.2   180  TRP180     -0.2718
     84  CB        27.6600   34.0630   72.9400 C.3   180  TRP180      0.0564
     85  CG        27.6510   32.8820   71.9880 C.ar  180  TRP180      0.0003
     86  CD1       28.2050   32.8350   70.7330 C.ar  180  TRP180      0.0946
     87  CD2       27.0400   31.5870   72.2010 C.ar  180  TRP180      0.0152
     88  NE1       27.9900   31.6060   70.1640 N.ar  180  TRP180     -0.2442
     89  CE2       27.2610   30.8260   71.0290 C.ar  180  TRP180      0.0810
     90  CE3       26.3120   31.0030   73.2650 C.ar  180  TRP180      0.0012
     91  CZ2       26.8070   29.5030   70.8980 C.ar  180  TRP180      0.0191
     92  CZ3       25.8320   29.7010   73.1270 C.ar  180  TRP180      0.0001
     93  CH2       26.0860   28.9580   71.9460 C.ar  180  TRP180      0.0015
     94  N         28.9260   33.0530   75.4720 N.am  181  ASP181     -0.1974
     95  CA        29.2900   32.0420   76.4370 C.3   181  ASP181      0.1709
     96  C         28.5620   30.7550   76.1070 C.2   181  ASP181      0.2293
     97  O         27.3330   30.6420   76.3380 O.2   181  ASP181     -0.2864
     98  CB        28.8860   32.5320   77.8230 C.3   181  ASP181      0.1436
     99  CG        29.2540   31.5600   78.9250 C.2   181  ASP181      0.3671
    100  OD1       29.5450   30.3700   78.6350 O.co2 181  ASP181     -0.2456
    101  OD2       29.2630   32.0080   80.0840 O.co2 181  ASP181     -0.2456
@<TRIPOS>BOND
     1    35    36    2
     2    35    34    1
     3    34    33    1
     4    34    37    1
     5    62    63    1
     6    70    68   ar
     7    70    72   ar
     8    37    38    1
     9    68    67   ar
    10    45    46    1
    11    65    64    2
    12    63    64    1
    13    63    66    1
    14    73    72    1
    15    72    71   ar
    16    40    38   ar
    17    40    42   ar
    18    38    39   ar
    19    67    66    1
    20    67    69   ar
    21    55    56    2
    22    55    54    1
    23    46    47    1
    24    46    49    1
    25    53    47   am
    26    53    54    1
    27    71    69   ar
    28    42    43   ar
    29    47    48    2
    30    54    57    1
    31    39    41   ar
    32    57    58    1
    33    61    59   am
    34    52    50   am
    35    49    50    1
    36    43    41   ar
    37    43    44    1
    38    58    59    1
    39    59    60    2
    40    50    51    2
    41     7     6    1
    42     8     6    1
    43     5     6    1
    44     5     2    1
    45    74    75    1
    46     1     2    1
    47     2     3    1
    48    75    78    1
    49    75    76    1
    50    79    78    1
    51    77    76    2
    52     3     4    2
    53     3     9   am
    54     9    10    1
    55    15    17   ar
    56    15    14   ar
    57    17    18   ar
    58    88    86   ar
    59    88    89   ar
    60    10    13    1
    61    10    11    1
    62    12    11    2
    63    86    85   ar
    64    14    13    1
    65    14    16   ar
    66    91    89   ar
    67    91    93   ar
    68    89    87   ar
    69    18    16   ar
    70    18    20   ar
    71    16    19   ar
    72    20    22   ar
    73    93    92   ar
    74    85    87   ar
    75    85    84    1
    76    87    90   ar
    77    80    81    1
    78    84    81    1
    79    92    90   ar
    80    19    21   ar
    81    22    21   ar
    82    81    82    1
    83    31    32    2
    84    31    30    1
    85    83    82    2
    86    82    94   am
    87    30    29    1
    88    94    95    1
    89    29    25   am
    90    96    97    2
    91    96    95    1
    92    28    27    1
    93    95    98    1
    94    25    26    2
    95    25    24    1
    96    27    24    1
    97    98    99    1
    98    24    23    1
    99   100    99   ar
   100    99   101   ar
