@<TRIPOS>MOLECULE
tmp/2vh9B02.pdb
 116 115 0 0 0
SMALL
GASTEIGER

@<TRIPOS>ATOM
      1  N         22.7010   43.4490   66.4390 N.3    26  LEU26      -0.1231
      2  CA        21.5100   42.6510   66.6850 C.3    26  LEU26       0.1693
      3  C         21.1950   42.6770   68.1770 C.2    26  LEU26       0.2592
      4  O         20.0370   42.8140   68.5620 O.2    26  LEU26      -0.2718
      5  CB        21.7330   41.2040   66.1910 C.3    26  LEU26       0.0284
      6  CG        20.6650   40.1420   66.4730 C.3    26  LEU26       0.0019
      7  CD1       19.3170   40.5720   65.9010 C.3    26  LEU26       0.0001
      8  CD2       21.0860   38.7990   65.9040 C.3    26  LEU26       0.0001
      9  N         22.2270   42.5190   69.0110 N.am   27  TRP27      -0.1976
     10  CA        22.0710   42.5170   70.4640 C.3    27  TRP27       0.1640
     11  C         23.3720   42.9080   71.1620 C.2    27  TRP27       0.2290
     12  O         24.4550   42.7410   70.6150 O.2    27  TRP27      -0.2864
     13  CB        21.6080   41.1380   70.9610 C.3    27  TRP27       0.0576
     14  CG        22.5950   40.0120   70.7970 C.ar   27  TRP27       0.0006
     15  CD1       22.8190   39.2780   69.6640 C.ar   27  TRP27       0.0946
     16  CD2       23.4530   39.4590   71.8010 C.ar   27  TRP27       0.0152
     17  NE1       23.7690   38.3290   69.8980 N.ar   27  TRP27      -0.2442
     18  CE2       24.1820   38.4170   71.1980 C.ar   27  TRP27       0.0810
     19  CE3       23.6790   39.7430   73.1560 C.ar   27  TRP27       0.0012
     20  CZ2       25.1170   37.6480   71.9020 C.ar   27  TRP27       0.0191
     21  CZ3       24.5900   38.9800   73.8530 C.ar   27  TRP27       0.0001
     22  CH2       25.3040   37.9430   73.2230 C.ar   27  TRP27       0.0015
     23  N         31.9770   33.8310   66.5100 N.3    79  SER79      -0.1217
     24  CA        31.3110   33.2070   65.3720 C.3    79  SER79       0.1889
     25  C         31.2110   34.1290   64.1500 C.2    79  SER79       0.2288
     26  O         31.3040   35.3680   64.2550 O.2    79  SER79      -0.2866
     27  CB        29.9160   32.7170   65.7890 C.3    79  SER79       0.2089
     28  OG        29.0700   33.8210   66.0080 O.3    79  SER79      -0.2183
     29  N         28.6800   33.3320   60.6820 N.3    81  TYR81      -0.1241
     30  CA        27.8010   32.2970   60.1270 C.3    81  TYR81       0.1605
     31  C         26.6020   32.8350   59.3470 C.2    81  TYR81       0.2264
     32  O         26.2620   34.0100   59.4310 O.2    81  TYR81      -0.2867
     33  CB        27.3240   31.3610   61.2560 C.3    81  TYR81       0.0534
     34  CG        26.4280   31.9970   62.2870 C.ar   81  TYR81      -0.0201
     35  CD1       26.9610   32.7890   63.3110 C.ar   81  TYR81      -0.0009
     36  CD2       25.0450   31.8030   62.2530 C.ar   81  TYR81      -0.0009
     37  CE1       26.1390   33.3670   64.2730 C.ar   81  TYR81       0.0417
     38  CE2       24.2090   32.3620   63.2130 C.ar   81  TYR81       0.0417
     39  CZ        24.7550   33.1490   64.2190 C.ar   81  TYR81       0.1957
     40  OH        23.9360   33.7280   65.1530 O.3    81  TYR81      -0.2866
     41  N         17.4500   31.1940   61.4420 N.3    85  ASN85      -0.1240
     42  CA        16.8100   30.8070   62.7130 C.3    85  ASN85       0.1653
     43  C         15.6890   31.7240   63.2250 C.2    85  ASN85       0.2266
     44  O         14.8110   31.2650   63.9510 O.2    85  ASN85      -0.2867
     45  CB        17.8530   30.6210   63.8250 C.3    85  ASN85       0.1155
     46  CG        18.3350   31.9380   64.4280 C.2    85  ASN85       0.2627
     47  OD1       18.0720   32.2360   65.6030 O.2    85  ASN85      -0.2716
     48  ND2       19.0430   32.7180   63.6420 N.am   85  ASN85      -0.0877
     49  N         15.2700   25.4420   61.3780 N.3    92  HIS92      -0.1241
     50  CA        15.9450   26.3790   60.4880 C.3    92  HIS92       0.1621
     51  C         17.2080   25.7880   59.7970 C.2    92  HIS92       0.2264
     52  O         17.6220   24.6630   60.0570 O.2    92  HIS92      -0.2867
     53  CB        16.3260   27.6300   61.2920 C.3    92  HIS92       0.0745
     54  CG        17.4780   27.4170   62.2240 C.ar   92  HIS92       0.0817
     55  ND1       17.3080   27.0770   63.5470 N.ar   92  HIS92      -0.2268
     56  CD2       18.8150   27.4960   62.0250 C.ar   92  HIS92       0.1154
     57  CE1       18.4910   26.9380   64.1160 C.ar   92  HIS92       0.1986
     58  NE2       19.4220   27.1760   63.2090 N.ar   92  HIS92      -0.2212
     59  N         21.3930   26.5780   58.6500 N.3    94  GLU94      -0.1245
     60  CA        22.5600   27.3020   59.1170 C.3    94  GLU94       0.1567
     61  C         23.8320   26.8140   58.3920 C.2    94  GLU94       0.2260
     62  O         23.9530   25.6430   58.0270 O.2    94  GLU94      -0.2867
     63  CB        22.6920   27.0710   60.6300 C.3    94  GLU94       0.0388
     64  CG        23.0110   28.2770   61.4130 C.3    94  GLU94       0.1160
     65  CD        23.1070   28.0340   62.9210 C.2    94  GLU94       0.3649
     66  OE1       22.2170   27.2990   63.4730 O.co2  94  GLU94      -0.2457
     67  OE2       24.0870   28.5950   63.5430 O.co2  94  GLU94      -0.2457
     68  N         23.4270   23.0260   59.0110 N.3   115  PHE115     -0.1241
     69  CA        22.0960   22.6520   59.5060 C.3   115  PHE115      0.1605
     70  C         21.0870   22.7910   58.3880 C.2   115  PHE115      0.2264
     71  O         21.0440   23.8240   57.7060 O.2   115  PHE115     -0.2867
     72  CB        21.5980   23.5950   60.6070 C.3   115  PHE115      0.0534
     73  CG        22.0530   23.2560   61.9710 C.ar  115  PHE115     -0.0203
     74  CD1       23.3620   23.4900   62.3530 C.ar  115  PHE115     -0.0042
     75  CD2       21.1720   22.7630   62.8990 C.ar  115  PHE115     -0.0042
     76  CE1       23.7930   23.2040   63.6580 C.ar  115  PHE115     -0.0003
     77  CE2       21.5810   22.4710   64.1950 C.ar  115  PHE115     -0.0003
     78  CZ        22.8950   22.6770   64.5740 C.ar  115  PHE115     -0.0000
     79  N         27.2080   37.3020   63.2680 N.3   177  GLY177     -0.1210
     80  CA        28.3860   37.0150   64.0710 C.3   177  GLY177      0.1956
     81  C         28.0510   37.2960   65.5130 C.2   177  GLY177      0.2612
     82  O         27.0790   37.9980   65.8060 O.2   177  GLY177     -0.2717
     83  N         28.8430   36.7270   66.4170 N.am  178  SER178     -0.1952
     84  CA        28.6720   36.9280   67.8370 C.3   178  SER178      0.1924
     85  C         29.9120   36.5360   68.6420 C.2   178  SER178      0.2314
     86  O         30.7740   35.8080   68.1660 O.2   178  SER178     -0.2863
     87  CB        27.4680   36.1130   68.3410 C.3   178  SER178      0.2116
     88  OG        27.6250   34.7330   68.0370 O.3   178  SER178     -0.2180
     89  N         29.9460   34.9170   72.5290 N.3   180  TRP180     -0.1241
     90  CA        29.0170   34.4450   73.5390 C.3   180  TRP180      0.1605
     91  C         29.5910   33.2880   74.3520 C.2   180  TRP180      0.2264
     92  O         30.5780   32.6400   73.9650 O.2   180  TRP180     -0.2867
     93  CB        27.6600   34.0630   72.9400 C.3   180  TRP180      0.0550
     94  CG        27.6510   32.8820   71.9880 C.ar  180  TRP180      0.0003
     95  CD1       28.2050   32.8350   70.7330 C.ar  180  TRP180      0.0946
     96  CD2       27.0400   31.5870   72.2010 C.ar  180  TRP180      0.0152
     97  NE1       27.9900   31.6060   70.1640 N.ar  180  TRP180     -0.2442
     98  CE2       27.2610   30.8260   71.0290 C.ar  180  TRP180      0.0810
     99  CE3       26.3120   31.0030   73.2650 C.ar  180  TRP180      0.0012
    100  CZ2       26.8070   29.5030   70.8980 C.ar  180  TRP180      0.0191
    101  CZ3       25.8320   29.7010   73.1270 C.ar  180  TRP180      0.0001
    102  CH2       26.0860   28.9580   71.9460 C.ar  180  TRP180      0.0015
    103  N         29.4390   23.3140   75.9380 N.3   185  TRP185     -0.1241
    104  CA        30.0360   22.4500   74.8980 C.3   185  TRP185      0.1605
    105  C         31.2680   22.9470   74.1190 C.2   185  TRP185      0.2264
    106  O         31.9180   22.1450   73.4160 O.2   185  TRP185     -0.2867
    107  CB        28.9620   22.0990   73.8760 C.3   185  TRP185      0.0550
    108  CG        28.4410   23.2700   73.0910 C.ar  185  TRP185      0.0003
    109  CD1       27.3990   24.0700   73.4240 C.ar  185  TRP185      0.0946
    110  CD2       28.9230   23.7380   71.8330 C.ar  185  TRP185      0.0152
    111  NE1       27.1950   25.0130   72.4590 N.ar  185  TRP185     -0.2442
    112  CE2       28.1190   24.8320   71.4650 C.ar  185  TRP185      0.0810
    113  CE3       29.9450   23.3240   70.9640 C.ar  185  TRP185      0.0012
    114  CZ2       28.3050   25.5300   70.2690 C.ar  185  TRP185      0.0191
    115  CZ3       30.1300   24.0130   69.7760 C.ar  185  TRP185      0.0001
    116  CH2       29.3150   25.1010   69.4410 C.ar  185  TRP185      0.0015
@<TRIPOS>BOND
     1    71    70    2
     2    62    61    2
     3    70    69    1
     4    61    60    1
     5    59    60    1
     6    68    69    1
     7    60    63    1
     8    31    32    2
     9    31    30    1
    10    69    72    1
    11    51    52    2
    12    51    50    1
    13    30    29    1
    14    30    33    1
    15    50    53    1
    16    50    49    1
    17    72    73    1
    18    63    64    1
    19    33    34    1
    20    53    54    1
    21    64    65    1
    22    41    42    1
    23    73    74   ar
    24    73    75   ar
    25    56    54   ar
    26    56    58   ar
    27    54    55   ar
    28    36    34   ar
    29    36    38   ar
    30    34    35   ar
    31    74    76   ar
    32    42    43    1
    33    42    45    1
    34    75    77   ar
    35    65    66   ar
    36    65    67   ar
    37    58    57   ar
    38    38    39   ar
    39    43    44    2
    40    79    80    1
    41    35    37   ar
    42    55    57   ar
    43    48    46   am
    44    76    78   ar
    45    45    46    1
    46    80    81    1
    47    25    26    2
    48    25    24    1
    49    77    78   ar
    50    39    37   ar
    51    39    40    1
    52    46    47    2
    53    24    27    1
    54    24    23    1
    55    81    82    2
    56    81    83   am
    57    27    28    1
    58     7     6    1
    59     8     6    1
    60     5     6    1
    61     5     2    1
    62    83    84    1
    63     1     2    1
    64     2     3    1
    65    84    87    1
    66    84    85    1
    67    88    87    1
    68    86    85    2
    69     3     4    2
    70     3     9   am
    71     9    10    1
    72   116   115   ar
    73   116   114   ar
    74    15    17   ar
    75    15    14   ar
    76   115   113   ar
    77    17    18   ar
    78    97    95   ar
    79    97    98   ar
    80   114   112   ar
    81    10    13    1
    82    10    11    1
    83    12    11    2
    84    95    94   ar
    85    14    13    1
    86    14    16   ar
    87   100    98   ar
    88   100   102   ar
    89   113   110   ar
    90    98    96   ar
    91    18    16   ar
    92    18    20   ar
    93   112   110   ar
    94   112   111   ar
    95    16    19   ar
    96   110   108   ar
    97    20    22   ar
    98   102   101   ar
    99    94    96   ar
   100    94    93    1
   101    96    99   ar
   102   111   109   ar
   103    89    90    1
   104    93    90    1
   105   108   109   ar
   106   108   107    1
   107   101    99   ar
   108    19    21   ar
   109    22    21   ar
   110   106   105    2
   111    90    91    1
   112   107   104    1
   113    92    91    2
   114   105   104    1
   115   104   103    1
