@<TRIPOS>MOLECULE
tmp/2vhaA00.pdb
 112 103 0 0 0
SMALL
GASTEIGER

@<TRIPOS>ATOM
      1  N         38.1780   23.8130    4.1150 N.3    22  ARG22      -0.1245
      2  CA        36.7930   24.1530    3.7060 C.3    22  ARG22       0.1563
      3  C         36.0280   22.8780    3.3930 C.2    22  ARG22       0.2260
      4  O         36.5590   21.7850    3.1290 O.2    22  ARG22      -0.2867
      5  CB        36.8220   25.1060    2.5250 C.3    22  ARG22       0.0307
      6  CG        37.6610   26.3530    2.7780 C.3    22  ARG22       0.0489
      7  CD        37.1800   27.1540    3.9880 C.3    22  ARG22       0.2205
      8  NE        35.8120   27.6310    3.7510 N.pl3  22  ARG22      -0.0865
      9  CZ        35.4860   28.7300    3.1120 C.cat  22  ARG22       0.5346
     10  NH1       36.3890   29.5870    2.7070 N.pl3  22  ARG22       0.1354
     11  NH2       34.2100   29.0130    2.8630 N.pl3  22  ARG22       0.1354
     12  N         33.7940   30.7570    5.8890 N.3    70  SER70      -0.1217
     13  CA        34.2310   32.1060    5.5480 C.3    70  SER70       0.1889
     14  C         34.0080   33.0460    6.7090 C.2    70  SER70       0.2288
     15  O         34.7640   33.9770    6.9680 O.2    70  SER70      -0.2866
     16  CB        33.4520   32.5970    4.3170 C.3    70  SER70       0.2089
     17  OG        33.8470   31.8600    3.1440 O.3    70  SER70      -0.2183
     18  N         36.5160   31.8670   10.0760 N.3    73  ARG73      -0.1245
     19  CA        37.9260   31.5000    9.9500 C.3    73  ARG73       0.1563
     20  C         38.8750   32.3920   10.7360 C.2    73  ARG73       0.2260
     21  O         39.8240   31.8630   11.3390 O.2    73  ARG73      -0.2867
     22  CB        38.3250   31.4590    8.4710 C.3    73  ARG73       0.0307
     23  CG        38.0720   32.7590    7.7270 C.3    73  ARG73       0.0489
     24  CD        38.4220   32.7480    6.2360 C.3    73  ARG73       0.2205
     25  NE        37.6860   33.8320    5.5830 N.pl3  73  ARG73      -0.0865
     26  CZ        37.2510   33.8000    4.3490 C.cat  73  ARG73       0.5346
     27  NH1       37.6020   32.8460    3.5190 N.pl3  73  ARG73       0.1354
     28  NH2       36.4030   34.7460    3.9570 N.pl3  73  ARG73       0.1354
     29  N         40.1350   29.1300   -0.1140 N.3    88  SER88      -0.1217
     30  CA        39.6130   30.1700   -0.9720 C.3    88  SER88       0.1889
     31  C         39.5280   31.5010   -0.2290 C.2    88  SER88       0.2288
     32  O         38.6110   32.2780   -0.4730 O.2    88  SER88      -0.2866
     33  CB        38.2830   29.7650   -1.5960 C.3    88  SER88       0.2089
     34  OG        37.3170   29.4580   -0.5800 O.3    88  SER88      -0.2183
     35  N         40.5870   35.2290    0.3800 N.3    90  THR90      -0.1218
     36  CA        41.2210   36.4080   -0.2050 C.3    90  THR90       0.1862
     37  C         42.1490   37.0460    0.8100 C.2    90  THR90       0.2287
     38  O         41.8090   37.3370    1.9480 O.2    90  THR90      -0.2866
     39  CB        40.1520   37.4160   -0.6440 C.3    90  THR90       0.1770
     40  OG1       39.4410   36.7970   -1.7110 O.3    90  THR90      -0.2211
     41  CG2       40.8210   38.7130   -1.0960 C.3    90  THR90       0.0375
     42  N         42.2450   42.3570    6.0910 N.3    95  ARG95      -0.1245
     43  CA        42.4900   41.0890    6.8220 C.3    95  ARG95       0.1563
     44  C         43.9020   40.9370    7.3170 C.2    95  ARG95       0.2260
     45  O         44.1640   40.2320    8.2830 O.2    95  ARG95      -0.2867
     46  CB        42.1000   39.9250    5.9160 C.3    95  ARG95       0.0307
     47  CG        40.6170   39.8520    5.6670 C.3    95  ARG95       0.0489
     48  CD        40.2910   38.8180    4.6250 C.3    95  ARG95       0.2205
     49  NE        38.8400   38.7510    4.4210 N.pl3  95  ARG95      -0.0865
     50  CZ        38.2340   37.9110    3.6040 C.cat  95  ARG95       0.5346
     51  NH1       38.9720   37.0800    2.8910 N.pl3  95  ARG95       0.1354
     52  NH2       36.9150   37.8810    3.4710 N.pl3  95  ARG95       0.1354
     53  N         32.1370   36.8280    3.4240 N.3   137  THR137     -0.1203
     54  CA        32.9790   36.9390    2.2480 C.3   137  THR137      0.1994
     55  C         33.1320   38.3720    1.7580 C.2   137  THR137      0.2618
     56  O         32.3440   39.3000    2.0490 O.2   137  THR137     -0.2717
     57  CB        32.3870   36.0770    1.1080 C.3   137  THR137      0.1784
     58  OG1       31.1090   36.6050    0.7180 O.3   137  THR137     -0.2211
     59  CG2       32.3480   34.6070    1.4600 C.3   137  THR137      0.0376
     60  N         34.1590   38.5460    0.9160 N.am  138  THR138     -0.1952
     61  CA        34.3790   39.8170    0.2260 C.3   138  THR138      0.1897
     62  C         33.1720   40.1270   -0.6550 C.2   138  THR138      0.2313
     63  O         32.7950   41.3090   -0.8160 O.2   138  THR138     -0.2863
     64  CB        35.6980   39.8470   -0.5500 C.3   138  THR138      0.1794
     65  OG1       35.7250   38.6370   -1.3040 O.3   138  THR138     -0.2208
     66  CG2       36.8760   39.8920    0.3550 C.3   138  THR138      0.0378
     67  N         29.2620   27.9580    0.5210 N.3   162  HIS162     -0.1241
     68  CA        29.0090   28.1260   -0.9030 C.3   162  HIS162      0.1621
     69  C         27.9600   27.1670   -1.4440 C.2   162  HIS162      0.2264
     70  O         27.1700   27.5520   -2.3130 O.2   162  HIS162     -0.2867
     71  CB        30.3300   28.0610   -1.7010 C.3   162  HIS162      0.0745
     72  CG        31.3200   29.0650   -1.1650 C.ar  162  HIS162      0.0817
     73  ND1       31.0050   30.3870   -0.9370 N.ar  162  HIS162     -0.2268
     74  CD2       32.6420   28.8420   -0.8460 C.ar  162  HIS162      0.1154
     75  CE1       32.0980   30.9440   -0.4840 C.ar  162  HIS162      0.1986
     76  NE2       33.1050   30.0510   -0.3940 N.ar  162  HIS162     -0.2212
     77  N         29.6140   35.3880   -6.1990 N.3   179  MET179     -0.1230
     78  CA        30.8040   34.8090   -5.5750 C.3   179  MET179      0.1702
     79  C         31.9450   34.8490   -6.5790 C.2   179  MET179      0.2592
     80  O         31.7620   35.0370   -7.7860 O.2   179  MET179     -0.2718
     81  CB        30.5720   33.3930   -5.0830 C.3   179  MET179      0.0401
     82  CG        31.5870   32.8290   -4.0930 C.3   179  MET179      0.0596
     83  SD        32.1110   33.9030   -2.7710 S.3   179  MET179     -0.1393
     84  CE        30.5290   34.2540   -1.9990 C.3   179  MET179      0.0692
     85  N         33.1550   34.6120   -6.0510 N.am  180  ASP180     -0.1974
     86  CA        34.3330   34.3280   -6.8300 C.3   180  ASP180      0.1709
     87  C         33.9660   33.3880   -7.9810 C.2   180  ASP180      0.2293
     88  O         33.3800   32.3110   -7.7560 O.2   180  ASP180     -0.2864
     89  CB        35.3730   33.6350   -5.9660 C.3   180  ASP180      0.1436
     90  CG        35.7530   34.3240   -4.6830 C.2   180  ASP180      0.3671
     91  OD1       35.1700   35.3800   -4.3500 O.co2 180  ASP180     -0.2456
     92  OD2       36.6700   33.8070   -4.0040 O.co2 180  ASP180     -0.2456
     93  N         34.7180   29.5980   -7.7070 N.3   183  LEU183     -0.1245
     94  CA        33.8070   28.9200   -6.7570 C.3   183  LEU183      0.1561
     95  C         32.4370   28.7080   -7.3470 C.2   183  LEU183      0.2260
     96  O         31.7950   27.6650   -7.0630 O.2   183  LEU183     -0.2867
     97  CB        33.7260   29.7210   -5.4530 C.3   183  LEU183      0.0270
     98  CG        35.0210   29.7960   -4.6260 C.3   183  LEU183      0.0019
     99  CD1       34.8340   30.7010   -3.4370 C.3   183  LEU183      0.0001
    100  CD2       35.4390   28.3950   -4.1600 C.3   183  LEU183      0.0001
    101  N         43.9530   34.6740   -3.6980 N.3   209  TYR209     -0.1241
    102  CA        43.8930   33.6970   -2.6350 C.3   209  TYR209      0.1605
    103  C         45.3060   33.4690   -2.0620 C.2   209  TYR209      0.2264
    104  O         46.2480   33.2350   -2.8280 O.2   209  TYR209     -0.2867
    105  CB        43.4170   32.3550   -3.1400 C.3   209  TYR209      0.0534
    106  CG        41.9920   32.2100   -3.5540 C.ar  209  TYR209     -0.0201
    107  CD1       41.0940   33.2460   -3.4700 C.ar  209  TYR209     -0.0009
    108  CD2       41.5270   30.9880   -4.0320 C.ar  209  TYR209     -0.0009
    109  CE1       39.7530   33.0820   -3.8690 C.ar  209  TYR209      0.0417
    110  CE2       40.2220   30.7940   -4.4300 C.ar  209  TYR209      0.0417
    111  CZ        39.3230   31.8590   -4.3350 C.ar  209  TYR209      0.1957
    112  OH        38.0110   31.6440   -4.7200 O.3   209  TYR209     -0.2866
@<TRIPOS>BOND
     1    87    88    2
     2    87    86    1
     3    80    79    2
     4    93    94    1
     5    95    96    2
     6    95    94    1
     7    86    85    1
     8    86    89    1
     9    94    97    1
    10    79    85   am
    11    79    78    1
    12    77    78    1
    13    89    90    1
    14    78    81    1
    15    97    98    1
    16    81    82    1
    17   112   111    1
    18    90    91   ar
    19    90    92   ar
    20    98   100    1
    21    98    99    1
    22   110   111   ar
    23   110   108   ar
    24   111   109   ar
    25    82    83    1
    26   108   106   ar
    27   109   107   ar
    28   101   102    1
    29   106   107   ar
    30   106   105    1
    31   105   102    1
    32   104   103    2
    33    83    84    1
    34   102   103    1
    35    70    69    2
    36    40    39    1
    37    71    72    1
    38    71    68    1
    39    33    30    1
    40    33    34    1
    41    69    68    1
    42    65    64    1
    43    72    73   ar
    44    72    74   ar
    45    41    39    1
    46    30    31    1
    47    30    29    1
    48    73    75   ar
    49    68    67    1
    50    74    76   ar
    51    63    62    2
    52    62    61    1
    53    39    36    1
    54    64    61    1
    55    64    66    1
    56    75    76   ar
    57    32    31    2
    58    36    35    1
    59    36    37    1
    60    61    60    1
    61    58    57    1
    62    37    38    2
    63    60    55   am
    64    57    59    1
    65    57    54    1
    66    55    56    2
    67    55    54    1
    68    54    53    1
    69     5     6    1
    70     5     2    1
    71    10     9    1
    72     6     7    1
    73    11     9    1
    74    51    50    1
    75     9     8    2
    76     4     3    2
    77    17    16    1
    78     3     2    1
    79    52    50    1
    80    27    26    1
    81    50    49    2
    82     2     1    1
    83     8     7    1
    84    28    26    1
    85    16    13    1
    86    26    25    2
    87    49    48    1
    88    48    47    1
    89    13    12    1
    90    13    14    1
    91    25    24    1
    92    47    46    1
    93    46    43    1
    94    42    43    1
    95    24    23    1
    96    14    15    2
    97    43    44    1
    98    44    45    2
    99    23    22    1
   100    22    19    1
   101    19    18    1
   102    19    20    1
   103    20    21    2
