@<TRIPOS>MOLECULE
tmp/2vhlB00.pdb
 154 149 0 0 0
SMALL
GASTEIGER

@<TRIPOS>ATOM
      1  N         31.8190   25.7730  172.9520 N.3    64  HIS64      -0.1241
      2  CA        31.6270   26.7950  174.0090 C.3    64  HIS64       0.1621
      3  C         32.6030   27.9540  173.9280 C.2    64  HIS64       0.2264
      4  O         32.2150   29.1060  174.1530 O.2    64  HIS64      -0.2867
      5  CB        31.6690   26.1780  175.3920 C.3    64  HIS64       0.0745
      6  CG        30.5460   25.2480  175.6210 C.ar   64  HIS64       0.0817
      7  ND1       29.3270   25.6640  176.0960 N.ar   64  HIS64      -0.2268
      8  CD2       30.4200   23.9310  175.3450 C.ar   64  HIS64       0.1154
      9  CE1       28.5070   24.6240  176.1550 C.ar   64  HIS64       0.1986
     10  NE2       29.1500   23.5630  175.7070 N.ar   64  HIS64      -0.2212
     11  N         22.7180   25.4060  175.0020 N.3   135  GLU135     -0.1245
     12  CA        22.8360   24.1380  175.7070 C.3   135  GLU135      0.1567
     13  C         22.3630   24.3460  177.1400 C.2   135  GLU135      0.2260
     14  O         23.0180   25.0430  177.9220 O.2   135  GLU135     -0.2867
     15  CB        24.2710   23.5320  175.6680 C.3   135  GLU135      0.0388
     16  CG        24.2260   22.0840  176.1490 C.3   135  GLU135      0.1160
     17  CD        25.5520   21.3780  176.2550 C.2   135  GLU135      0.3649
     18  OE1       26.6070   22.0380  176.1890 O.co2 135  GLU135     -0.2457
     19  OE2       25.5220   20.1200  176.4130 O.co2 135  GLU135     -0.2457
     20  N         21.7950   14.0040  184.9250 N.3   143  ARG143     -0.1245
     21  CA        22.6930   13.9220  183.7830 C.3   143  ARG143      0.1563
     22  C         23.2740   15.3140  183.5330 C.2   143  ARG143      0.2260
     23  O         23.3180   15.7660  182.4140 O.2   143  ARG143     -0.2867
     24  CB        21.9420   13.4300  182.5280 C.3   143  ARG143      0.0307
     25  CG        21.4610   11.9700  182.5470 C.3   143  ARG143      0.0489
     26  CD        22.6310   10.9760  182.5610 C.3   143  ARG143      0.2205
     27  NE        22.1700    9.6890  183.0480 N.pl3 143  ARG143     -0.0865
     28  CZ        22.9510    8.7050  183.5030 C.cat 143  ARG143      0.5346
     29  NH1       24.2870    8.8320  183.5450 N.pl3 143  ARG143      0.1354
     30  NH2       22.3780    7.5810  183.9170 N.pl3 143  ARG143      0.1354
     31  N         26.4030   16.3410  184.1240 N.3   145  GLY145     -0.1210
     32  CA        27.8190   16.3940  183.7540 C.3   145  GLY145      0.1956
     33  C         28.4130   17.6790  184.3080 C.2   145  GLY145      0.2612
     34  O         28.3350   17.9330  185.5080 O.2   145  GLY145     -0.2717
     35  N         28.9610   18.5080  183.4300 N.am  146  ALA146     -0.1965
     36  CA        29.5430   19.7790  183.8200 C.3   146  ALA146      0.1728
     37  C         28.5780   20.9910  183.7690 C.2   146  ALA146      0.2616
     38  O         29.0030   22.1360  183.9670 O.2   146  ALA146     -0.2715
     39  CB        30.7990   20.0500  182.9570 C.3   146  ALA146      0.0334
     40  N         27.3070   20.7820  183.4680 N.am  147  GLN147     -0.1977
     41  CA        26.3200   21.8580  183.6250 C.3   147  GLN147      0.1601
     42  C         26.1120   22.2030  185.1380 C.2   147  GLN147      0.2287
     43  O         25.9160   21.2980  185.9560 O.2   147  GLN147     -0.2864
     44  CB        25.0040   21.4460  183.0080 C.3   147  GLN147      0.0394
     45  CG        25.0840   20.8920  181.6040 C.3   147  GLN147      0.0908
     46  CD        24.9580   21.9300  180.4930 C.2   147  GLN147      0.2608
     47  OE1       25.4040   21.6940  179.3810 O.2   147  GLN147     -0.2717
     48  NE2       24.3460   23.0740  180.7870 N.am  147  GLN147     -0.0878
     49  N         21.8320   15.7280  177.8890 N.3   201  HIS201     -0.1241
     50  CA        21.8000   15.8290  179.3440 C.3   201  HIS201      0.1621
     51  C         20.4850   15.2750  179.8800 C.2   201  HIS201      0.2264
     52  O         19.8190   15.8920  180.7130 O.2   201  HIS201     -0.2867
     53  CB        22.0810   17.2720  179.7840 C.3   201  HIS201      0.0745
     54  CG        23.4870   17.6900  179.4980 C.ar  201  HIS201      0.0817
     55  ND1       24.5180   17.4920  180.3890 N.ar  201  HIS201     -0.2268
     56  CD2       24.0460   18.2070  178.3820 C.ar  201  HIS201      0.1154
     57  CE1       25.6570   17.8930  179.8390 C.ar  201  HIS201      0.1986
     58  NE2       25.3920   18.3420  178.6200 N.ar  201  HIS201     -0.2212
     59  N         26.0580   15.5180  171.8910 N.3   222  HIS222     -0.1241
     60  CA        27.2670   14.6850  172.1220 C.3   222  HIS222      0.1621
     61  C         26.9630   13.2150  172.5190 C.2   222  HIS222      0.2264
     62  O         27.0400   12.8380  173.6830 O.2   222  HIS222     -0.2867
     63  CB        28.2510   15.3170  173.1370 C.3   222  HIS222      0.0745
     64  CG        27.6150   15.9940  174.3260 C.ar  222  HIS222      0.0817
     65  ND1       26.6960   15.3820  175.1480 N.ar  222  HIS222     -0.2268
     66  CD2       27.8570   17.2050  174.8820 C.ar  222  HIS222      0.1154
     67  CE1       26.3450   16.2060  176.1180 C.ar  222  HIS222      0.1986
     68  NE2       27.0360   17.3280  175.9740 N.ar  222  HIS222     -0.2212
     69  N         26.7710    9.6800  173.7580 N.3   224  TYR224     -0.1227
     70  CA        27.4890    8.9620  174.8430 C.3   224  TYR224      0.1736
     71  C         27.6730    9.7540  176.0980 C.2   224  TYR224      0.2595
     72  O         27.7530    9.1930  177.1760 O.2   224  TYR224     -0.2718
     73  CB        28.8400    8.3470  174.4150 C.3   224  TYR224      0.0548
     74  CG        28.8020    7.3860  173.2350 C.ar  224  TYR224     -0.0200
     75  CD1       27.9000    6.3090  173.1880 C.ar  224  TYR224     -0.0009
     76  CD2       29.6840    7.5490  172.1670 C.ar  224  TYR224     -0.0009
     77  CE1       27.8710    5.4380  172.0920 C.ar  224  TYR224      0.0417
     78  CE2       29.6990    6.6800  171.0730 C.ar  224  TYR224      0.0417
     79  CZ        28.7840    5.6140  171.0310 C.ar  224  TYR224      0.1957
     80  OH        28.8070    4.7430  169.9310 O.3   224  TYR224     -0.2866
     81  N         27.7080   11.0820  175.9630 N.am  225  ASN225     -0.1960
     82  CA        28.0510   11.9310  177.0650 C.3   225  ASN225      0.1819
     83  C         26.7920   12.4950  177.7000 C.2   225  ASN225      0.2621
     84  O         25.9330   13.0490  177.0010 O.2   225  ASN225     -0.2715
     85  CB        29.0050   13.0460  176.6090 C.3   225  ASN225      0.1195
     86  CG        30.2930   12.4880  176.0070 C.2   225  ASN225      0.2630
     87  OD1       30.6860   12.8880  174.9320 O.2   225  ASN225     -0.2716
     88  ND2       30.9350   11.5320  176.7000 N.am  225  ASN225     -0.0877
     89  N         26.7060   12.3000  179.0220 N.am  226  ALA226     -0.1963
     90  CA        25.6040   12.7470  179.8520 C.3   226  ALA226      0.1728
     91  C         24.2950   12.2330  179.2890 C.2   226  ALA226      0.2616
     92  O         23.3610   12.9780  179.0370 O.2   226  ALA226     -0.2715
     93  CB        25.6380   14.2850  180.0250 C.3   226  ALA226      0.0334
     94  N         24.2550   10.9180  179.0780 N.am  227  MET227     -0.1977
     95  CA        23.0820   10.2000  178.5260 C.3   227  MET227      0.1605
     96  C         22.8280    8.9970  179.3860 C.2   227  MET227      0.2287
     97  O         23.7890    8.3950  179.8960 O.2   227  MET227     -0.2864
     98  CB        23.3810    9.6090  177.1520 C.3   227  MET227      0.0413
     99  CG        23.6070   10.5530  176.0830 C.3   227  MET227      0.0598
    100  SD        23.6410    9.8010  174.4900 S.3   227  MET227     -0.1393
    101  CE        23.0450   11.1540  173.4920 C.3   227  MET227      0.0692
    102  N         36.4370   11.4900  175.2730 N.3   257  HIS257     -0.1241
    103  CA        35.0390   11.4670  175.6360 C.3   257  HIS257      0.1621
    104  C         34.4090   10.0780  175.3790 C.2   257  HIS257      0.2264
    105  O         33.4670    9.6750  176.0490 O.2   257  HIS257     -0.2867
    106  CB        34.3000   12.5810  174.9010 C.3   257  HIS257      0.0745
    107  CG        34.4380   13.9130  175.5710 C.ar  257  HIS257      0.0817
    108  ND1       35.6200   14.6230  175.5740 N.ar  257  HIS257     -0.2268
    109  CD2       33.5670   14.6270  176.3210 C.ar  257  HIS257      0.1154
    110  CE1       35.4550   15.7370  176.2680 C.ar  257  HIS257      0.1986
    111  NE2       34.2220   15.7560  176.7410 N.ar  257  HIS257     -0.2212
    112  N         32.7340   20.5670  171.0780 N.3   280  ASP280     -0.1239
    113  CA        32.3110   20.9060  172.4370 C.3   280  ASP280      0.1674
    114  C         33.4500   21.5440  173.2720 C.2   280  ASP280      0.2266
    115  O         33.5310   21.3430  174.4710 O.2   280  ASP280     -0.2867
    116  CB        31.7190   19.6450  173.1090 C.3   280  ASP280      0.1410
    117  CG        31.0130   19.9250  174.4280 C.2   280  ASP280      0.3668
    118  OD1       30.5380   21.0660  174.7000 O.co2 280  ASP280     -0.2456
    119  OD2       30.9150   18.9570  175.2010 O.co2 280  ASP280     -0.2456
    120  N         34.5030   27.7270  183.4000 N.3   294  PHE294     -0.1241
    121  CA        33.5340   27.1580  182.4980 C.3   294  PHE294      0.1605
    122  C         32.2390   26.9740  183.2770 C.2   294  PHE294      0.2264
    123  O         32.2090   26.2110  184.2290 O.2   294  PHE294     -0.2867
    124  CB        34.0520   25.8090  181.9710 C.3   294  PHE294      0.0534
    125  CG        33.1950   25.2000  180.8790 C.ar  294  PHE294     -0.0203
    126  CD1       32.5160   26.0100  179.9630 C.ar  294  PHE294     -0.0042
    127  CD2       33.0780   23.8190  180.7620 C.ar  294  PHE294     -0.0042
    128  CE1       31.7270   25.4470  178.9620 C.ar  294  PHE294     -0.0003
    129  CE2       32.2980   23.2450  179.7650 C.ar  294  PHE294     -0.0003
    130  CZ        31.6260   24.0510  178.8580 C.ar  294  PHE294     -0.0000
    131  N         34.9630   14.8860  186.8600 N.3   312  THR312     -0.1203
    132  CA        33.9580   14.9120  185.7730 C.3   312  THR312      0.1994
    133  C         34.5790   15.5990  184.5490 C.2   312  THR312      0.2618
    134  O         35.3120   16.5990  184.7100 O.2   312  THR312     -0.2717
    135  CB        32.6590   15.6300  186.2150 C.3   312  THR312      0.1784
    136  OG1       32.1450   14.9750  187.3740 O.3   312  THR312     -0.2211
    137  CG2       31.5750   15.5710  185.1380 C.3   312  THR312      0.0376
    138  N         34.3330   15.0550  183.3480 N.am  313  LEU313     -0.1965
    139  CA        34.7680   15.6810  182.1070 C.3   313  LEU313      0.1728
    140  C         33.9750   16.9510  181.8830 C.2   313  LEU313      0.2616
    141  O         32.7640   16.9890  182.1400 O.2   313  LEU313     -0.2715
    142  CB        34.6080   14.7520  180.8860 C.3   313  LEU313      0.0311
    143  CG        35.6650   13.6750  180.5800 C.3   313  LEU313      0.0022
    144  CD1       35.1850   12.6940  179.5010 C.3   313  LEU313      0.0001
    145  CD2       36.9760   14.3460  180.1620 C.3   313  LEU313      0.0001
    146  N         34.6470   17.9740  181.3620 N.am  314  ALA314     -0.1963
    147  CA        34.0630   19.3040  181.3400 C.3   314  ALA314      0.1728
    148  C         34.4250   20.0210  180.0710 C.2   314  ALA314      0.2616
    149  O         35.2740   20.9160  180.0760 O.2   314  ALA314     -0.2715
    150  CB        34.5440   20.1130  182.5680 C.3   314  ALA314      0.0334
    151  N         33.7720   19.6350  178.9830 N.am  315  GLY315     -0.1955
    152  CA        34.0720   20.1730  177.6710 C.3   315  GLY315      0.1869
    153  C         35.3150   19.5100  177.1620 C.2   315  GLY315      0.2309
    154  O         35.8870   18.6060  177.8020 O.2   315  GLY315     -0.2863
@<TRIPOS>BOND
     1    80    79    1
     2    79    78   ar
     3    79    77   ar
     4    78    76   ar
     5   112   113    1
     6    59    60    1
     7    77    75   ar
     8    60    61    1
     9    60    63    1
    10    76    74   ar
    11   113   116    1
    12   113   114    1
    13    61    62    2
    14     1     2    1
    15   116   117    1
    16    63    64    1
    17    75    74   ar
    18    74    73    1
    19   114   115    2
    20   101   100    1
    21    69    70    1
    22     3     2    1
    23     3     4    2
    24     2     5    1
    25    64    66   ar
    26    64    65   ar
    27    73    70    1
    28   117   118   ar
    29   117   119   ar
    30   100    99    1
    31    70    71    1
    32    66    68   ar
    33   106   107    1
    34   106   103    1
    35    87    86    2
    36    11    12    1
    37    65    67   ar
    38   102   103    1
    39     8     6   ar
    40     8    10   ar
    41   104   103    1
    42   104   105    2
    43     5     6    1
    44   107   108   ar
    45   107   109   ar
    46   108   110   ar
    47     6     7   ar
    48    15    12    1
    49    15    16    1
    50    12    13    1
    51    10     9   ar
    52    81    71   am
    53    81    82    1
    54    68    67   ar
    55    86    85    1
    56    86    88   am
    57    99    98    1
    58     7     9   ar
    59    71    72    2
    60    16    17    1
    61    18    17   ar
    62    17    19   ar
    63   110   111   ar
    64   109   111   ar
    65    85    82    1
    66    84    83    2
    67    82    83    1
    68    13    14    2
    69    98    95    1
    70   153   152    1
    71   153   154    2
    72   152   151    1
    73    83    89   am
    74    49    50    1
    75    56    58   ar
    76    56    54   ar
    77    95    94    1
    78    95    96    1
    79    58    57   ar
    80   130   128   ar
    81   130   129   ar
    82   128   126   ar
    83   151   148   am
    84    89    90    1
    85    92    91    2
    86    94    91   am
    87    91    90    1
    88    50    53    1
    89    50    51    1
    90    47    46    2
    91    96    97    2
    92    54    53    1
    93    54    55   ar
    94   144   143    1
    95   129   127   ar
    96    57    55   ar
    97    90    93    1
    98    51    52    2
    99   126   125   ar
   100   148   149    2
   101   148   147    1
   102   145   143    1
   103    46    48   am
   104    46    45    1
   105   143   142    1
   106   127   125   ar
   107   125   124    1
   108   142   139    1
   109   147   146    1
   110   147   150    1
   111   146   140   am
   112    45    44    1
   113   140   139    1
   114   140   141    2
   115   124   121    1
   116   139   138    1
   117    23    22    2
   118   121   122    1
   119   121   120    1
   120    24    25    1
   121    24    21    1
   122    25    26    1
   123    26    27    1
   124    39    36    1
   125    44    41    1
   126    27    28    2
   127   122   123    2
   128   138   133   am
   129    35    36    1
   130    35    33   am
   131    40    41    1
   132    40    37   am
   133    28    29    1
   134    28    30    1
   135    22    21    1
   136    41    42    1
   137    32    31    1
   138    32    33    1
   139    37    36    1
   140    37    38    2
   141    21    20    1
   142    33    34    2
   143   133   134    2
   144   133   132    1
   145   137   135    1
   146    42    43    2
   147   132   135    1
   148   132   131    1
   149   135   136    1
