@<TRIPOS>MOLECULE
tmp/2vhqA00.pdb
 105 99 0 0 0
SMALL
GASTEIGER

@<TRIPOS>ATOM
      1  N         81.4280   59.5090    6.5750 N.3   133  ASN133     -0.1225
      2  CA        82.6620   59.0630    5.9180 C.3   133  ASN133      0.1785
      3  C         83.4560   57.9900    6.6410 C.2   133  ASN133      0.2598
      4  O         84.2290   57.2710    5.9890 O.2   133  ASN133     -0.2718
      5  CB        83.5720   60.2600    5.6020 C.3   133  ASN133      0.1169
      6  CG        83.1540   60.9900    4.3340 C.2   133  ASN133      0.2627
      7  OD1       82.2840   60.5170    3.5930 O.2   133  ASN133     -0.2716
      8  ND2       83.7800   62.1330    4.0680 N.am  133  ASN133     -0.0877
      9  N         83.2680   57.8690    7.9600 N.am  134  SER134     -0.1938
     10  CA        84.0210   56.8940    8.7680 C.3   134  SER134      0.2055
     11  C         83.7010   55.4360    8.3350 C.2   134  SER134      0.2644
     12  O         82.5460   55.0900    8.1200 O.2   134  SER134     -0.2714
     13  CB        83.7530   57.1280   10.2710 C.3   134  SER134      0.2130
     14  OG        83.9710   58.5010   10.6330 O.3   134  SER134     -0.2179
     15  N         84.7330   54.6110    8.1910 N.am  135  GLY135     -0.1939
     16  CA        84.6260   53.2700    7.5870 C.3   135  GLY135      0.2014
     17  C         84.3840   52.1680    8.6180 C.2   135  GLY135      0.2639
     18  O         85.1410   52.0150    9.5880 O.2   135  GLY135     -0.2714
     19  N         83.3380   51.3810    8.3910 N.am  136  LYS136     -0.1963
     20  CA        82.8780   50.4360    9.4010 C.3   136  LYS136      0.1728
     21  C         83.8130   49.2360    9.5460 C.2   136  LYS136      0.2617
     22  O         84.1470   48.8540   10.6450 O.2   136  LYS136     -0.2715
     23  CB        81.4290   50.0120    9.1090 C.3   136  LYS136      0.0311
     24  CG        80.4640   51.1900    9.2400 C.3   136  LYS136      0.0038
     25  CD        79.0380   50.7710    8.9460 C.3   136  LYS136      0.0206
     26  CE        78.0680   51.9750    8.8870 C.3   136  LYS136      0.1093
     27  NZ        77.9810   52.5860    7.5300 N.3   136  LYS136     -0.1314
     28  N         84.2530   48.6740    8.4290 N.am  137  THR137     -0.1937
     29  CA        85.1140   47.4930    8.4520 C.3   137  THR137      0.2013
     30  C         86.4480   47.7180    9.1890 C.2   137  THR137      0.2484
     31  O         86.8320   46.8930   10.0210 O.2   137  THR137     -0.2729
     32  CB        85.3490   46.9700    7.0390 C.3   137  THR137      0.1807
     33  OG1       84.0900   46.5930    6.4770 O.3   137  THR137     -0.2208
     34  CG2       86.2760   45.7450    7.0200 C.3   137  THR137      0.0379
     35  N         87.1730   48.8160    8.8800 N.am  138  PRO138     -0.2726
     36  CA        88.3610   49.0910    9.6920 C.3   138  PRO138      0.1402
     37  C         88.0760   49.1680   11.1830 C.2   138  PRO138      0.2269
     38  O         88.8660   48.6590   11.9870 O.2   138  PRO138     -0.2865
     39  CB        88.8470   50.4430    9.1450 C.3   138  PRO138      0.0296
     40  CG        88.4240   50.3750    7.6870 C.3   138  PRO138      0.0237
     41  CD        87.0460   49.7750    7.7710 C.3   138  PRO138      0.0939
     42  N         80.1190   39.5320    1.0060 N.3   160  GLU160     -0.1245
     43  CA        80.7600   40.6780    0.3780 C.3   160  GLU160      0.1567
     44  C         81.3830   40.1700   -0.9210 C.2   160  GLU160      0.2260
     45  O         81.7520   39.0150   -0.9930 O.2   160  GLU160     -0.2867
     46  CB        81.8370   41.2790    1.2790 C.3   160  GLU160      0.0388
     47  CG        81.3280   41.9160    2.5860 C.3   160  GLU160      0.1160
     48  CD        80.4650   43.1490    2.3700 C.2   160  GLU160      0.3649
     49  OE1       80.8470   44.0410    1.5890 O.co2 160  GLU160     -0.2457
     50  OE2       79.3840   43.2410    2.9960 O.co2 160  GLU160     -0.2457
     51  N         84.1310   39.9000   -2.4540 N.3   162  LEU162     -0.1245
     52  CA        85.5880   39.8790   -2.2730 C.3   162  LEU162      0.1561
     53  C         86.0390   38.4560   -2.2010 C.2   162  LEU162      0.2260
     54  O         85.2230   37.5630   -1.9570 O.2   162  LEU162     -0.2867
     55  CB        85.9990   40.6210   -0.9900 C.3   162  LEU162      0.0270
     56  CG        85.7380   42.1270   -0.9340 C.3   162  LEU162      0.0019
     57  CD1       85.8950   42.6580    0.5250 C.3   162  LEU162      0.0001
     58  CD2       86.6250   42.9140   -1.9110 C.3   162  LEU162      0.0001
     59  N         81.9140   40.3380    9.3520 N.3   189  ASP189     -0.1239
     60  CA        81.8660   41.2290    8.1970 C.3   189  ASP189      0.1674
     61  C         81.2390   40.4220    7.0630 C.2   189  ASP189      0.2266
     62  O         81.8930   39.5550    6.5100 O.2   189  ASP189     -0.2867
     63  CB        83.2680   41.6910    7.8330 C.3   189  ASP189      0.1410
     64  CG        83.2790   42.8410    6.8200 C.2   189  ASP189      0.3668
     65  OD1       82.2170   43.1660    6.2110 O.co2 189  ASP189     -0.2456
     66  OD2       84.3840   43.4190    6.6340 O.co2 189  ASP189     -0.2456
     67  N         75.1740   42.4130    6.0480 N.3   192  LYS192     -0.1245
     68  CA        74.4590   42.8770    4.8520 C.3   192  LYS192      0.1561
     69  C         73.4840   41.8890    4.2020 C.2   192  LYS192      0.2260
     70  O         72.3110   42.2140    4.0040 O.2   192  LYS192     -0.2867
     71  CB        75.4820   43.3080    3.7970 C.3   192  LYS192      0.0271
     72  CG        74.9160   43.4350    2.3900 C.3   192  LYS192      0.0035
     73  CD        75.9610   43.9290    1.4270 C.3   192  LYS192      0.0206
     74  CE        76.8580   42.8190    0.9660 C.3   192  LYS192      0.1093
     75  NZ        78.0490   43.3860    0.3080 N.3   192  LYS192     -0.1314
     76  N         75.7990   48.3350    7.3230 N.3   223  ASN223     -0.1240
     77  CA        75.6180   49.5180    6.4890 C.3   223  ASN223      0.1653
     78  C         74.1180   49.7620    6.2840 C.2   223  ASN223      0.2266
     79  O         73.4100   48.9010    5.7660 O.2   223  ASN223     -0.2867
     80  CB        76.3670   49.3830    5.1530 C.3   223  ASN223      0.1155
     81  CG        77.8410   49.8160    5.2570 C.2   223  ASN223      0.2627
     82  OD1       78.5590   49.3950    6.1650 O.2   223  ASN223     -0.2716
     83  ND2       78.2910   50.6420    4.3230 N.am  223  ASN223     -0.0877
     84  N         94.0560   56.1500   10.8300 N.3   277  TYR277     -0.1227
     85  CA        94.6250   55.1210    9.9720 C.3   277  TYR277      0.1736
     86  C         96.1630   55.1520    9.9280 C.2   277  TYR277      0.2596
     87  O         96.7850   56.2090    9.9810 O.2   277  TYR277     -0.2718
     88  CB        94.0820   55.2560    8.5530 C.3   277  TYR277      0.0548
     89  CG        92.6190   54.9740    8.4110 C.ar  277  TYR277     -0.0200
     90  CD1       92.1720   53.6970    8.1430 C.ar  277  TYR277     -0.0009
     91  CD2       91.6850   55.9860    8.5140 C.ar  277  TYR277     -0.0009
     92  CE1       90.8440   53.4230    7.9950 C.ar  277  TYR277      0.0417
     93  CE2       90.3360   55.7280    8.3590 C.ar  277  TYR277      0.0417
     94  CZ        89.9240   54.4350    8.1120 C.ar  277  TYR277      0.1957
     95  OH        88.5980   54.1550    7.9760 O.3   277  TYR277     -0.2866
     96  N         96.7540   53.9680    9.8410 N.am  278  GLY278     -0.1957
     97  CA        98.1690   53.8060    9.5490 C.3   278  GLY278      0.1869
     98  C         98.2630   53.2270    8.1630 C.2   278  GLY278      0.2309
     99  O         97.3770   53.4450    7.3260 O.2   278  GLY278     -0.2863
    100  N         95.4540   50.7910    5.5640 N.3   281  SER281     -0.1217
    101  CA        94.1480   51.0460    6.1590 C.3   281  SER281      0.1889
    102  C         93.9150   50.4430    7.5600 C.2   281  SER281      0.2288
    103  O         92.7740   50.3530    8.0040 O.2   281  SER281     -0.2866
    104  CB        93.0420   50.6240    5.1860 C.3   281  SER281      0.2089
    105  OG        92.9830   51.5250    4.0700 O.3   281  SER281     -0.2183
@<TRIPOS>BOND
     1    51    52    1
     2    52    53    1
     3    52    55    1
     4    53    54    2
     5    58    56    1
     6    45    44    2
     7    55    56    1
     8    56    57    1
     9    44    43    1
    10    75    74    1
    11    43    42    1
    12    43    46    1
    13    74    73    1
    14    46    47    1
    15    73    72    1
    16    49    48   ar
    17    48    47    1
    18    48    50   ar
    19    72    71    1
    20     7     6    2
    21    71    68    1
    22    70    69    2
    23     8     6   am
    24   105   104    1
    25    69    68    1
    26    83    81   am
    27     6     5    1
    28    68    67    1
    29    80    81    1
    30    80    77    1
    31   104   101    1
    32    81    82    2
    33   100   101    1
    34     5     2    1
    35    79    78    2
    36     2     1    1
    37     2     3    1
    38     4     3    2
    39   101   102    1
    40    65    64   ar
    41    78    77    1
    42    33    32    1
    43    77    76    1
    44    62    61    2
    45    66    64   ar
    46     3     9   am
    47    64    63    1
    48    34    32    1
    49    32    29    1
    50    61    60    1
    51    99    98    2
    52    27    26    1
    53   102   103    2
    54    16    15    1
    55    16    17    1
    56    40    41    1
    57    40    39    1
    58    41    35    1
    59    63    60    1
    60     9    10    1
    61    95    94    1
    62    92    94   ar
    63    92    90   ar
    64    94    93   ar
    65    12    11    2
    66    90    89   ar
    67    98    97    1
    68    15    11   am
    69    60    59    1
    70    11    10    1
    71    93    91   ar
    72    19    17   am
    73    19    20    1
    74    89    91   ar
    75    89    88    1
    76    28    29    1
    77    28    21   am
    78    29    30    1
    79    88    85    1
    80    17    18    2
    81    10    13    1
    82    35    30   am
    83    35    36    1
    84    26    25    1
    85    25    24    1
    86    23    24    1
    87    23    20    1
    88    39    36    1
    89    30    31    2
    90    20    21    1
    91    21    22    2
    92    97    96    1
    93    36    37    1
    94    96    86   am
    95    86    85    1
    96    86    87    2
    97    85    84    1
    98    13    14    1
    99    37    38    2
