@<TRIPOS>MOLECULE
tmp/2vhqA01.pdb
 88 83 0 0 0
SMALL
GASTEIGER

@<TRIPOS>ATOM
      1  N         68.4240   49.1620   17.2510 N.3   240  ARG240     -0.1231
      2  CA        67.7560   49.6170   18.4710 C.3   240  ARG240      0.1694
      3  C         67.6460   48.5150   19.5160 C.2   240  ARG240      0.2591
      4  O         68.0940   48.6750   20.6480 O.2   240  ARG240     -0.2718
      5  CB        66.3630   50.1960   18.1800 C.3   240  ARG240      0.0321
      6  CG        66.4210   51.5830   17.6010 C.3   240  ARG240      0.0489
      7  CD        65.0510   52.2280   17.5020 C.3   240  ARG240      0.2205
      8  NE        65.1440   53.5080   16.7910 N.pl3 240  ARG240     -0.0865
      9  CZ        64.6000   53.7770   15.6000 C.cat 240  ARG240      0.5346
     10  NH1       63.8890   52.8700   14.9290 N.pl3 240  ARG240      0.1354
     11  NH2       64.7620   54.9850   15.0660 N.pl3 240  ARG240      0.1354
     12  N         67.1010   47.3840   19.1010 N.am  241  ALA241     -0.1980
     13  CA        66.5860   46.3920   20.0310 C.3   241  ALA241      0.1597
     14  C         67.2570   45.0250   19.9600 C.2   241  ALA241      0.2287
     15  O         67.1230   44.2410   20.9070 O.2   241  ALA241     -0.2864
     16  CB        65.1020   46.2420   19.7920 C.3   241  ALA241      0.0319
     17  N         74.3810   49.0670   26.6930 N.3   261  ARG261     -0.1245
     18  CA        73.4420   48.5400   27.6890 C.3   261  ARG261      0.1563
     19  C         74.2240   47.7930   28.7600 C.2   261  ARG261      0.2260
     20  O         74.9460   46.8500   28.4470 O.2   261  ARG261     -0.2867
     21  CB        72.4260   47.5980   27.0500 C.3   261  ARG261      0.0307
     22  CG        71.5360   48.2510   26.0190 C.3   261  ARG261      0.0489
     23  CD        70.6510   47.2230   25.2840 C.3   261  ARG261      0.2205
     24  NE        69.5540   46.8210   26.1520 N.pl3 261  ARG261     -0.0865
     25  CZ        68.3930   46.3360   25.7390 C.cat 261  ARG261      0.5346
     26  NH1       68.1560   46.1390   24.4440 N.pl3 261  ARG261      0.1354
     27  NH2       67.4730   46.0260   26.6470 N.pl3 261  ARG261      0.1354
     28  N         72.9510   46.2920   31.5230 N.3   263  GLY263     -0.1225
     29  CA        72.2140   45.1930   32.0770 C.3   263  GLY263      0.1811
     30  C         70.7140   45.4270   32.0350 C.2   263  GLY263      0.2280
     31  O         70.2340   46.4540   31.5540 O.2   263  GLY263     -0.2866
     32  N         67.3300   46.5240   32.9070 N.3   265  GLY265     -0.1210
     33  CA        66.7980   47.6880   33.6070 C.3   265  GLY265      0.1956
     34  C         67.8050   48.7290   34.0360 C.2   265  GLY265      0.2612
     35  O         67.4300   49.6660   34.7450 O.2   265  GLY265     -0.2717
     36  N         69.0780   48.5690   33.6470 N.am  266  LEU266     -0.1965
     37  CA        70.1320   49.4450   34.1620 C.3   266  LEU266      0.1728
     38  C         70.3820   50.6030   33.1830 C.2   266  LEU266      0.2616
     39  O         69.8300   50.6560   32.0810 O.2   266  LEU266     -0.2715
     40  CB        71.4260   48.6600   34.4660 C.3   266  LEU266      0.0311
     41  CG        71.3810   47.4140   35.3860 C.3   266  LEU266      0.0022
     42  CD1       72.7530   46.7770   35.5100 C.3   266  LEU266      0.0001
     43  CD2       70.8550   47.7090   36.7770 C.3   266  LEU266      0.0001
     44  N         71.1950   51.5580   33.5990 N.am  267  GLN267     -0.1963
     45  CA        71.4270   52.7420   32.7670 C.3   267  GLN267      0.1733
     46  C         72.2740   52.3740   31.5500 C.2   267  GLN267      0.2616
     47  O         73.1160   51.4740   31.6080 O.2   267  GLN267     -0.2715
     48  CB        72.0650   53.8830   33.5870 C.3   267  GLN267      0.0408
     49  CG        71.0260   54.6500   34.4130 C.3   267  GLN267      0.0908
     50  CD        71.5730   55.9140   35.0470 C.2   267  GLN267      0.2608
     51  OE1       72.3490   55.8520   36.0120 O.2   267  GLN267     -0.2717
     52  NE2       71.1770   57.0800   34.5050 N.am  267  GLN267     -0.0878
     53  N         71.9970   53.0370   30.4410 N.am  268  ARG268     -0.1977
     54  CA        72.8080   52.9090   29.2640 C.3   268  ARG268      0.1597
     55  C         73.9170   53.9450   29.2920 C.2   268  ARG268      0.2287
     56  O         73.6590   55.1250   29.5430 O.2   268  ARG268     -0.2864
     57  CB        71.9630   53.0780   28.0270 C.3   268  ARG268      0.0334
     58  CG        70.7900   52.1490   28.0580 C.3   268  ARG268      0.0492
     59  CD        70.2990   51.8060   26.6910 C.3   268  ARG268      0.2205
     60  NE        68.9870   51.1730   26.7880 N.pl3 268  ARG268     -0.0865
     61  CZ        68.3710   50.5780   25.7760 C.cat 268  ARG268      0.5346
     62  NH1       68.9390   50.5150   24.5680 N.pl3 268  ARG268      0.1354
     63  NH2       67.1860   50.0370   25.9700 N.pl3 268  ARG268      0.1354
     64  N         73.4270   57.7790   29.1390 N.3   292  ILE292     -0.1231
     65  CA        72.6410   58.3820   28.0630 C.3   292  ILE292      0.1692
     66  C         71.1550   58.0330   28.2120 C.2   292  ILE292      0.2592
     67  O         70.7940   56.8980   28.5390 O.2   292  ILE292     -0.2718
     68  CB        73.1650   57.9760   26.6600 C.3   292  ILE292      0.0266
     69  CG1       72.5080   58.8400   25.5750 C.3   292  ILE292      0.0019
     70  CG2       72.9370   56.4900   26.3980 C.3   292  ILE292      0.0020
     71  CD1       73.1700   58.7470   24.2120 C.3   292  ILE292      0.0001
     72  N         70.3060   59.0310   27.9730 N.am  293  LYS293     -0.1966
     73  CA        68.8610   58.8970   28.1210 C.3   293  LYS293      0.1728
     74  C         68.2430   58.3790   26.8240 C.2   293  LYS293      0.2616
     75  O         68.8800   58.4110   25.7670 O.2   293  LYS293     -0.2715
     76  CB        68.2470   60.2600   28.4570 C.3   293  LYS293      0.0311
     77  CG        68.7720   60.9030   29.7360 C.3   293  LYS293      0.0038
     78  CD        67.8790   60.5960   30.9310 C.3   293  LYS293      0.0206
     79  CE        68.3860   61.2710   32.1990 C.3   293  LYS293      0.1093
     80  NZ        68.2370   62.7520   32.1440 N.3   293  LYS293     -0.1314
     81  N         67.0000   57.9060   26.9060 N.am  294  ASN294     -0.1972
     82  CA        66.1870   57.6880   25.7050 C.3   294  ASN294      0.1688
     83  C         65.9450   59.0770   25.0890 C.2   294  ASN294      0.2292
     84  O         66.3070   60.0830   25.6960 O.2   294  ASN294     -0.2864
     85  CB        64.8680   56.9740   26.0450 C.3   294  ASN294      0.1181
     86  CG        65.0790   55.6220   26.7440 C.2   294  ASN294      0.2629
     87  OD1       64.3470   55.2730   27.6730 O.2   294  ASN294     -0.2716
     88  ND2       66.0810   54.8650   26.2990 N.am  294  ASN294     -0.0877
@<TRIPOS>BOND
     1    10     9    1
     2    11     9    1
     3     9     8    2
     4     8     7    1
     5     1     2    1
     6     7     6    1
     7     6     5    1
     8     5     2    1
     9     2     3    1
    10    12     3   am
    11    12    13    1
    12     3     4    2
    13    16    13    1
    14    14    13    1
    15    14    15    2
    16    71    69    1
    17    26    25    1
    18    62    61    1
    19    83    84    2
    20    83    82    1
    21    23    22    1
    22    23    24    1
    23    69    68    1
    24    82    85    1
    25    82    81    1
    26    25    24    2
    27    25    27    1
    28    75    74    2
    29    61    63    1
    30    61    60    2
    31    22    21    1
    32    85    86    1
    33    88    86   am
    34    70    68    1
    35    68    65    1
    36    59    60    1
    37    59    58    1
    38    17    18    1
    39    86    87    2
    40    74    81   am
    41    74    73    1
    42    21    18    1
    43    18    19    1
    44    72    73    1
    45    72    66   am
    46    57    58    1
    47    57    54    1
    48    65    66    1
    49    65    64    1
    50    73    76    1
    51    66    67    2
    52    20    19    2
    53    76    77    1
    54    54    55    1
    55    54    53    1
    56    55    56    2
    57    77    78    1
    58    53    46   am
    59    78    79    1
    60    28    29    1
    61    46    47    2
    62    46    45    1
    63    31    30    2
    64    30    29    1
    65    39    38    2
    66    80    79    1
    67    45    48    1
    68    45    44    1
    69    32    33    1
    70    38    44   am
    71    38    37    1
    72    48    49    1
    73    33    34    1
    74    36    34   am
    75    36    37    1
    76    34    35    2
    77    37    40    1
    78    49    50    1
    79    40    41    1
    80    52    50   am
    81    50    51    2
    82    41    42    1
    83    41    43    1
