@<TRIPOS>MOLECULE
tmp/2vhuA00.pdb
 86 82 0 0 0
SMALL
GASTEIGER

@<TRIPOS>ATOM
      1  N         78.7630   54.2400    3.7190 N.3   133  ASN133     -0.1225
      2  CA        80.1920   53.9370    3.5520 C.3   133  ASN133      0.1785
      3  C         81.2460   54.9760    4.0220 C.2   133  ASN133      0.2598
      4  O         81.5510   55.9600    3.3150 O.2   133  ASN133     -0.2718
      5  CB        80.4790   53.5010    2.1070 C.3   133  ASN133      0.1169
      6  CG        81.9610   53.2770    1.8540 C.2   133  ASN133      0.2627
      7  OD1       82.5100   53.7130    0.8350 O.2   133  ASN133     -0.2716
      8  ND2       82.6250   52.6110    2.7980 N.am  133  ASN133     -0.0877
      9  N         81.7780   54.7290    5.2240 N.am  134  SER134     -0.1938
     10  CA        83.0230   55.3460    5.7020 C.3   134  SER134      0.2055
     11  C         83.6740   54.5170    6.8360 C.2   134  SER134      0.2644
     12  O         83.6850   54.9150    8.0080 O.2   134  SER134     -0.2714
     13  CB        82.8430   56.8380    6.0720 C.3   134  SER134      0.2130
     14  OG        82.4180   57.0210    7.4140 O.3   134  SER134     -0.2179
     15  N         84.1810   53.3410    6.4600 N.am  135  GLY135     -0.1939
     16  CA        85.1730   52.6160    7.2530 C.3   135  GLY135      0.2014
     17  C         84.6810   51.6600    8.3160 C.2   135  GLY135      0.2639
     18  O         85.2730   51.5780    9.3920 O.2   135  GLY135     -0.2714
     19  N         83.6230   50.9160    8.0140 N.am  136  LYS136     -0.1963
     20  CA        83.0690   49.9620    8.9720 C.3   136  LYS136      0.1728
     21  C         83.9150   48.6950    9.1180 C.2   136  LYS136      0.2617
     22  O         84.0930   48.1830   10.2280 O.2   136  LYS136     -0.2715
     23  CB        81.6140   49.6310    8.6310 C.3   136  LYS136      0.0311
     24  CG        80.6370   50.6380    9.1960 C.3   136  LYS136      0.0038
     25  CD        79.5350   50.9630    8.2130 C.3   136  LYS136      0.0206
     26  CE        79.0650   52.3950    8.4150 C.3   136  LYS136      0.1093
     27  NZ        77.7310   52.6370    7.8070 N.3   136  LYS136     -0.1314
     28  N         84.4420   48.2010    8.0030 N.am  137  THR137     -0.1937
     29  CA        85.2940   47.0200    8.0200 C.3   137  THR137      0.2013
     30  C         86.5780   47.2260    8.8310 C.2   137  THR137      0.2484
     31  O         86.8960   46.3940    9.6850 O.2   137  THR137     -0.2729
     32  CB        85.5960   46.5120    6.5970 C.3   137  THR137      0.1807
     33  OG1       84.4040   45.9330    6.0560 O.3   137  THR137     -0.2208
     34  CG2       86.6940   45.4520    6.6040 C.3   137  THR137      0.0379
     35  N         87.3100   48.3310    8.5760 N.am  138  PRO138     -0.2726
     36  CA        88.5060   48.5930    9.3520 C.3   138  PRO138      0.1402
     37  C         88.2320   48.7380   10.8440 C.2   138  PRO138      0.2269
     38  O         89.0620   48.3330   11.6550 O.2   138  PRO138     -0.2865
     39  CB        89.0070   49.9160    8.7710 C.3   138  PRO138      0.0296
     40  CG        88.4580   49.9560    7.4020 C.3   138  PRO138      0.0237
     41  CD        87.1070   49.3730    7.5530 C.3   138  PRO138      0.0939
     42  N         80.4780   39.0500    0.7220 N.3   160  GLU160     -0.1245
     43  CA        81.0810   40.2180    0.1120 C.3   160  GLU160      0.1567
     44  C         81.6930   39.7420   -1.1890 C.2   160  GLU160      0.2260
     45  O         82.2070   38.6260   -1.2480 O.2   160  GLU160     -0.2867
     46  CB        82.1440   40.8440    1.0160 C.3   160  GLU160      0.0388
     47  CG        81.6130   41.4510    2.3060 C.3   160  GLU160      0.1160
     48  CD        80.7800   42.7010    2.0860 C.2   160  GLU160      0.3649
     49  OE1       81.3190   43.7540    1.6690 O.co2 160  GLU160     -0.2457
     50  OE2       79.5660   42.6220    2.3420 O.co2 160  GLU160     -0.2457
     51  N         79.5100   44.0930   11.1840 N.3   221  SER221     -0.1217
     52  CA        79.3050   45.2240   10.2810 C.3   221  SER221      0.1889
     53  C         77.8570   45.3050    9.8130 C.2   221  SER221      0.2288
     54  O         77.2390   44.2870    9.5140 O.2   221  SER221     -0.2866
     55  CB        80.2290   45.0760    9.0690 C.3   221  SER221      0.2089
     56  OG        80.0420   46.1190    8.1300 O.3   221  SER221     -0.2183
     57  N         76.1990   47.9560    7.1140 N.3   223  ASN223     -0.1240
     58  CA        75.9270   49.0310    6.1620 C.3   223  ASN223      0.1653
     59  C         74.4230   49.1310    5.8950 C.2   223  ASN223      0.2266
     60  O         73.8230   48.1570    5.4280 O.2   223  ASN223     -0.2867
     61  CB        76.6680   48.7780    4.8430 C.3   223  ASN223      0.1155
     62  CG        78.1270   49.2170    4.8890 C.2   223  ASN223      0.2627
     63  OD1       78.4320   50.4050    5.0420 O.2   223  ASN223     -0.2716
     64  ND2       79.0370   48.2600    4.7310 N.am  223  ASN223     -0.0877
     65  N         94.0530   55.9640   10.4140 N.3   277  TYR277     -0.1227
     66  CA        94.5990   54.9280    9.5440 C.3   277  TYR277      0.1736
     67  C         96.1190   54.9560    9.4690 C.2   277  TYR277      0.2596
     68  O         96.7290   56.0210    9.4210 O.2   277  TYR277     -0.2718
     69  CB        94.0460   55.0600    8.1320 C.3   277  TYR277      0.0548
     70  CG        92.6150   54.6450    7.9780 C.ar  277  TYR277     -0.0200
     71  CD1       92.2680   53.2980    7.8630 C.ar  277  TYR277     -0.0009
     72  CD2       91.6050   55.5960    7.9290 C.ar  277  TYR277     -0.0009
     73  CE1       90.9460   52.9090    7.7070 C.ar  277  TYR277      0.0417
     74  CE2       90.2830   55.2220    7.7770 C.ar  277  TYR277      0.0417
     75  CZ        89.9570   53.8800    7.6620 C.ar  277  TYR277      0.1957
     76  OH        88.6340   53.5160    7.5090 O.3   277  TYR277     -0.2866
     77  N         96.7180   53.7710    9.4600 N.am  278  GLY278     -0.1957
     78  CA        98.1320   53.6220    9.1900 C.3   278  GLY278      0.1869
     79  C         98.2990   53.1150    7.7740 C.2   278  GLY278      0.2309
     80  O         97.5510   53.4920    6.8640 O.2   278  GLY278     -0.2863
     81  N         95.5810   50.4690    5.1940 N.3   281  SER281     -0.1217
     82  CA        94.2580   50.6940    5.7820 C.3   281  SER281      0.1889
     83  C         94.0180   50.1180    7.1720 C.2   281  SER281      0.2288
     84  O         92.8960   50.1740    7.6670 O.2   281  SER281     -0.2866
     85  CB        93.1680   50.2460    4.8200 C.3   281  SER281      0.2089
     86  OG        93.2610   51.0150    3.6440 O.3   281  SER281     -0.2183
@<TRIPOS>BOND
     1    45    44    2
     2    44    43    1
     3    43    42    1
     4    43    46    1
     5     7     6    2
     6    46    47    1
     7    49    48   ar
     8     6     5    1
     9     6     8   am
    10    48    47    1
    11    48    50   ar
    12     5     2    1
    13     4     3    2
    14     2     1    1
    15     2     3    1
    16    86    85    1
    17     3     9   am
    18    64    62   am
    19    85    82    1
    20    61    62    1
    21    61    58    1
    22    62    63    2
    23    81    82    1
    24     9    10    1
    25    60    59    2
    26    10    13    1
    27    10    11    1
    28    82    83    1
    29    59    58    1
    30    33    32    1
    31    13    14    1
    32    58    57    1
    33    15    11   am
    34    15    16    1
    35    32    34    1
    36    32    29    1
    37    11    12    2
    38    80    79    2
    39    83    84    2
    40    16    17    1
    41    40    41    1
    42    40    39    1
    43    76    75    1
    44    41    35    1
    45    75    73   ar
    46    75    74   ar
    47    73    71   ar
    48    79    78    1
    49    74    72   ar
    50    27    26    1
    51    71    70   ar
    52    72    70   ar
    53    70    69    1
    54    28    29    1
    55    28    21   am
    56    19    17   am
    57    19    20    1
    58    29    30    1
    59    56    55    1
    60    69    66    1
    61    25    26    1
    62    25    24    1
    63    17    18    2
    64    35    30   am
    65    35    36    1
    66    23    20    1
    67    23    24    1
    68    39    36    1
    69    30    31    2
    70    20    21    1
    71    55    52    1
    72    21    22    2
    73    78    77    1
    74    36    37    1
    75    68    67    2
    76    77    67   am
    77    67    66    1
    78    54    53    2
    79    66    65    1
    80    53    52    1
    81    52    51    1
    82    37    38    2
