@<TRIPOS>MOLECULE
tmp/2vi0A01.pdb
 151 149 0 0 0
SMALL
GASTEIGER

@<TRIPOS>ATOM
      1  N         21.0050   37.7610    7.5560 N.3   102  GLU102     -0.1245
      2  CA        19.7830   38.4250    8.0190 C.3   102  GLU102      0.1567
      3  C         19.9060   39.9560    7.9600 C.2   102  GLU102      0.2260
      4  O         19.4580   40.6590    8.8600 O.2   102  GLU102     -0.2867
      5  CB        19.3760   37.9180    9.4120 C.3   102  GLU102      0.0388
      6  CG        18.9370   36.4330    9.4280 C.3   102  GLU102      0.1160
      7  CD        18.6420   35.9070   10.8280 C.2   102  GLU102      0.3649
      8  OE1       18.4490   36.7300   11.7520 O.co2 102  GLU102     -0.2457
      9  OE2       18.5730   34.6620   11.0030 O.co2 102  GLU102     -0.2457
     10  N         16.6720   44.1240   11.6120 N.3   106  ASP106     -0.1225
     11  CA        17.1890   45.3030   12.3020 C.3   106  ASP106      0.1805
     12  C         17.9760   44.9430   13.5800 C.2   106  ASP106      0.2598
     13  O         18.2990   45.8290   14.3930 O.2   106  ASP106     -0.2718
     14  CB        16.0480   46.2910   12.5970 C.3   106  ASP106      0.1424
     15  CG        15.0650   45.7880   13.6330 C.2   106  ASP106      0.3668
     16  OD1       15.1750   44.6420   14.0870 O.co2 106  ASP106     -0.2456
     17  OD2       14.1600   46.5650   14.0350 O.co2 106  ASP106     -0.2456
     18  N         18.3000   43.6580   13.7630 N.am  107  TRP107     -0.1962
     19  CA        18.9330   43.2090   15.0280 C.3   107  TRP107      0.1771
     20  C         20.4520   43.0500   14.9970 C.2   107  TRP107      0.2619
     21  O         21.0930   42.9940   16.0420 O.2   107  TRP107     -0.2715
     22  CB        18.2900   41.9350   15.5650 C.3   107  TRP107      0.0590
     23  CG        18.0430   40.9240   14.5230 C.ar  107  TRP107      0.0006
     24  CD1       18.8820   39.9420   14.1100 C.ar  107  TRP107      0.0946
     25  CD2       16.8630   40.8200   13.7300 C.ar  107  TRP107      0.0152
     26  NE1       18.3010   39.2320   13.0900 N.ar  107  TRP107     -0.2442
     27  CE2       17.0520   39.7540   12.8350 C.ar  107  TRP107      0.0810
     28  CE3       15.6490   41.5280   13.6960 C.ar  107  TRP107      0.0012
     29  CZ2       16.0630   39.3830   11.9030 C.ar  107  TRP107      0.0191
     30  CZ3       14.6730   41.1570   12.7850 C.ar  107  TRP107      0.0001
     31  CH2       14.8800   40.0980   11.8970 C.ar  107  TRP107      0.0015
     32  N         21.0290   42.9050   13.8140 N.am  108  TYR108     -0.1974
     33  CA        22.4830   42.7880   13.7020 C.3   108  TYR108      0.1639
     34  C         23.1130   44.1010   13.2560 C.2   108  TYR108      0.2290
     35  O         22.5450   44.8150   12.4250 O.2   108  TYR108     -0.2864
     36  CB        22.8430   41.6860   12.7120 C.3   108  TYR108      0.0560
     37  CG        22.4560   40.2740   13.1430 C.ar  108  TYR108     -0.0198
     38  CD1       22.7650   39.8080   14.4120 C.ar  108  TYR108     -0.0009
     39  CD2       21.8300   39.4000   12.2620 C.ar  108  TYR108     -0.0009
     40  CE1       22.4380   38.5570   14.8150 C.ar  108  TYR108      0.0417
     41  CE2       21.4910   38.1170   12.6390 C.ar  108  TYR108      0.0417
     42  CZ        21.7970   37.6790   13.9150 C.ar  108  TYR108      0.1957
     43  OH        21.4700   36.4020   14.2980 O.3   108  TYR108     -0.2866
     44  N         16.3930   37.1170    6.0310 N.3   150  ASN150     -0.1225
     45  CA        15.3790   36.7500    7.0040 C.3   150  ASN150      0.1785
     46  C         14.0160   36.5840    6.3050 C.2   150  ASN150      0.2597
     47  O         13.7100   37.2800    5.3190 O.2   150  ASN150     -0.2718
     48  CB        15.2570   37.8480    8.0610 C.3   150  ASN150      0.1169
     49  CG        14.4510   37.4100    9.2520 C.2   150  ASN150      0.2627
     50  OD1       13.4030   38.0290    9.5900 O.2   150  ASN150     -0.2716
     51  ND2       14.9400   36.4020    9.9380 N.am  150  ASN150     -0.0877
     52  N         13.1680   35.7260    6.8680 N.am  151  CYS151     -0.1956
     53  CA        11.8370   35.4870    6.3000 C.3   151  CYS151      0.1843
     54  C         11.0080   36.7790    6.1680 C.2   151  CYS151      0.2625
     55  O         10.2420   36.9460    5.2120 O.2   151  CYS151     -0.2714
     56  CB        11.0770   34.4410    7.1070 C.3   151  CYS151      0.0997
     57  SG        10.9120   34.8520    8.8380 S.3   151  CYS151     -0.0797
     58  N         11.1920   37.6800    7.1250 N.am  152  ASP152     -0.1971
     59  CA        10.5240   38.9850    7.1450 C.3   152  ASP152      0.1709
     60  C         11.5490   40.1220    7.0810 C.2   152  ASP152      0.2293
     61  O         12.6110   40.0790    7.7420 O.2   152  ASP152     -0.2864
     62  CB         9.7510   39.1960    8.4360 C.3   152  ASP152      0.1436
     63  CG         8.6510   38.1810    8.6560 C.2   152  ASP152      0.3671
     64  OD1        7.8510   37.9480    7.7300 O.co2 152  ASP152     -0.2456
     65  OD2        8.5520   37.6560    9.7860 O.co2 152  ASP152     -0.2456
     66  N         12.4680   43.4810    8.4580 N.3   154  VAL154     -0.1245
     67  CA        12.2160   44.1710    9.7210 C.3   154  VAL154      0.1561
     68  C         13.1410   45.3770    9.8160 C.2   154  VAL154      0.2260
     69  O         14.3590   45.2520    9.7390 O.2   154  VAL154     -0.2867
     70  CB        12.4190   43.2340   10.9360 C.3   154  VAL154      0.0252
     71  CG1       12.0940   43.9650   12.2430 C.3   154  VAL154      0.0019
     72  CG2       11.5260   41.9980   10.8010 C.3   154  VAL154      0.0019
     73  N         16.2060   32.3700    6.5780 N.3   176  ASP176     -0.1225
     74  CA        16.0230   32.0200    7.9870 C.3   176  ASP176      0.1805
     75  C         14.6210   32.3980    8.4380 C.2   176  ASP176      0.2598
     76  O         14.0930   33.4260    8.0370 O.2   176  ASP176     -0.2718
     77  CB        16.9890   32.8170    8.8770 C.3   176  ASP176      0.1424
     78  CG        18.4550   32.5170    8.5970 C.2   176  ASP176      0.3668
     79  OD1       18.7290   31.6200    7.7670 O.co2 176  ASP176     -0.2456
     80  OD2       19.3630   33.1650    9.2320 O.co2 176  ASP176     -0.2456
     81  N         14.0490   31.5880    9.3040 N.am  177  GLY177     -0.1942
     82  CA        12.7410   31.9500    9.8600 C.3   177  GLY177      0.2014
     83  C         12.2590   30.9840   10.9080 C.2   177  GLY177      0.2638
     84  O         12.6310   29.8070   10.8930 O.2   177  GLY177     -0.2714
     85  N         11.4430   31.5050   11.8210 N.am  178  TYR178     -0.1973
     86  CA        10.9470   30.7360   12.9530 C.3   178  TYR178      0.1639
     87  C          9.4500   30.9010   13.0740 C.2   178  TYR178      0.2290
     88  O          8.9000   31.9800   12.7830 O.2   178  TYR178     -0.2864
     89  CB        11.5960   31.2230   14.2420 C.3   178  TYR178      0.0560
     90  CG        13.0900   30.9850   14.2230 C.ar  178  TYR178     -0.0198
     91  CD1       13.6410   29.9150   14.8900 C.ar  178  TYR178     -0.0009
     92  CD2       13.9300   31.7820   13.4510 C.ar  178  TYR178     -0.0009
     93  CE1       14.9870   29.6750   14.8680 C.ar  178  TYR178      0.0417
     94  CE2       15.3040   31.5200   13.4040 C.ar  178  TYR178      0.0417
     95  CZ        15.8130   30.4670   14.1250 C.ar  178  TYR178      0.1957
     96  OH        17.1450   30.1870   14.0910 O.3   178  TYR178     -0.2866
     97  N          7.3840   31.4170   15.9360 N.3   180  TRP180     -0.1241
     98  CA         7.4970   31.8250   17.3350 C.3   180  TRP180      0.1605
     99  C          6.2710   31.4180   18.1740 C.2   180  TRP180      0.2264
    100  O          6.2850   31.5310   19.4010 O.2   180  TRP180     -0.2867
    101  CB         7.6830   33.3330   17.4300 C.3   180  TRP180      0.0550
    102  CG         8.8830   33.8350   16.7660 C.ar  180  TRP180      0.0003
    103  CD1        9.0270   34.1310   15.4480 C.ar  180  TRP180      0.0946
    104  CD2       10.1390   34.1190   17.3840 C.ar  180  TRP180      0.0152
    105  NE1       10.3040   34.5740   15.1940 N.ar  180  TRP180     -0.2442
    106  CE2       11.0100   34.5770   16.3660 C.ar  180  TRP180      0.0810
    107  CE3       10.6250   34.0060   18.6900 C.ar  180  TRP180      0.0012
    108  CZ2       12.3290   34.9560   16.6230 C.ar  180  TRP180      0.0191
    109  CZ3       11.9440   34.3890   18.9470 C.ar  180  TRP180      0.0001
    110  CH2       12.7770   34.8510   17.9140 C.ar  180  TRP180      0.0015
    111  N          5.8850   40.9730   21.7350 N.3   186  TRP186     -0.1241
    112  CA         5.4460   41.7860   20.5920 C.3   186  TRP186      0.1605
    113  C          4.1950   41.2310   19.8760 C.2   186  TRP186      0.2264
    114  O          3.7730   41.7690   18.8460 O.2   186  TRP186     -0.2867
    115  CB         6.5910   42.0220   19.5900 C.3   186  TRP186      0.0550
    116  CG         7.3460   40.7990   19.0810 C.ar  186  TRP186      0.0003
    117  CD1        8.5110   40.2970   19.5830 C.ar  186  TRP186      0.0946
    118  CD2        7.0180   39.9840   17.9430 C.ar  186  TRP186      0.0152
    119  NE1        8.9160   39.2070   18.8460 N.ar  186  TRP186     -0.2442
    120  CE2        8.0180   38.9960   17.8330 C.ar  186  TRP186      0.0810
    121  CE3        5.9720   39.9910   17.0120 C.ar  186  TRP186      0.0012
    122  CZ2        8.0020   38.0110   16.8300 C.ar  186  TRP186      0.0191
    123  CZ3        5.9550   39.0240   16.0160 C.ar  186  TRP186      0.0001
    124  CH2        6.9620   38.0430   15.9320 C.ar  186  TRP186      0.0015
    125  N          2.4960   30.5540   13.0940 N.3   191  GLN191     -0.1245
    126  CA         2.5630   30.6330   11.6270 C.3   191  GLN191      0.1566
    127  C          3.0080   29.2750   11.0880 C.2   191  GLN191      0.2260
    128  O          3.9370   28.6770   11.6220 O.2   191  GLN191     -0.2867
    129  CB         3.5730   31.6930   11.1610 C.3   191  GLN191      0.0367
    130  CG         3.1860   33.1640   11.3980 C.3   191  GLN191      0.0905
    131  CD         4.2480   34.1340   10.8550 C.2   191  GLN191      0.2608
    132  OE1        5.3860   34.1240   11.3030 O.2   191  GLN191     -0.2717
    133  NE2        3.8680   34.9690    9.8930 N.am  191  GLN191     -0.0878
    134  N         18.2390   28.4080    8.6380 N.3   215  GLU215     -0.1245
    135  CA        17.7670   28.3040   10.0340 C.3   215  GLU215      0.1567
    136  C         16.2680   28.1980   10.0170 C.2   215  GLU215      0.2260
    137  O         15.5930   29.0190    9.4050 O.2   215  GLU215     -0.2867
    138  CB        18.1060   29.5400   10.8670 C.3   215  GLU215      0.0388
    139  CG        19.5270   29.9080   10.9760 C.3   215  GLU215      0.1160
    140  CD        19.7520   31.1690   11.8570 C.2   215  GLU215      0.3649
    141  OE1       18.8230   31.6170   12.5890 O.co2 215  GLU215     -0.2457
    142  OE2       20.8730   31.7050   11.8070 O.co2 215  GLU215     -0.2457
    143  N         15.5240   31.4300   23.0200 N.3   254  GLU254     -0.1245
    144  CA        14.3820   32.3360   23.2530 C.3   254  GLU254      0.1567
    145  C         13.2120   31.4990   23.7470 C.2   254  GLU254      0.2260
    146  O         12.4740   31.8860   24.6590 O.2   254  GLU254     -0.2867
    147  CB        13.9550   33.0700   21.9720 C.3   254  GLU254      0.0388
    148  CG        14.9840   34.0320   21.4010 C.3   254  GLU254      0.1160
    149  CD        15.8780   33.4100   20.3140 C.2   254  GLU254      0.3649
    150  OE1       16.1840   32.1870   20.3770 O.co2 254  GLU254     -0.2457
    151  OE2       16.2930   34.1540   19.4040 O.co2 254  GLU254     -0.2457
@<TRIPOS>BOND
     1    55    54    2
     2    47    46    2
     3    44    45    1
     4    54    53    1
     5    54    58   am
     6    53    52    1
     7    53    56    1
     8    46    52   am
     9    46    45    1
    10    73    74    1
    11    45    48    1
    12    60    59    1
    13    60    61    2
    14    56    57    1
    15    58    59    1
    16    59    62    1
    17     1     2    1
    18    64    63   ar
    19    79    78   ar
    20     3     2    1
    21     3     4    2
    22    74    75    1
    23    74    77    1
    24     2     5    1
    25    76    75    2
    26    48    49    1
    27    62    63    1
    28    75    81   am
    29    66    67    1
    30    78    77    1
    31    78    80   ar
    32   134   135    1
    33    63    65   ar
    34    49    50    2
    35    49    51   am
    36    81    82    1
    37   137   136    2
    38     5     6    1
    39     6     7    1
    40    67    68    1
    41    67    70    1
    42    69    68    2
    43    82    83    1
    44   133   131   am
    45   136   135    1
    46   135   138    1
    47    72    70    1
    48     7     9   ar
    49     7     8   ar
    50   131   132    2
    51   131   130    1
    52   138   139    1
    53    84    83    2
    54    83    85   am
    55    70    71    1
    56   139   140    1
    57   127   128    2
    58   127   126    1
    59   129   130    1
    60   129   126    1
    61    10    11    1
    62   126   125    1
    63   142   140   ar
    64    85    86    1
    65   140   141   ar
    66    31    29   ar
    67    31    30   ar
    68    29    27   ar
    69    39    41   ar
    70    39    37   ar
    71    11    14    1
    72    11    12    1
    73    35    34    2
    74    14    15    1
    75    41    42   ar
    76    36    37    1
    77    36    33    1
    78    88    87    2
    79    30    28   ar
    80    27    26   ar
    81    27    25   ar
    82    86    87    1
    83    86    89    1
    84    26    24   ar
    85    37    38   ar
    86    34    33    1
    87    94    92   ar
    88    94    95   ar
    89    92    90   ar
    90    12    18   am
    91    12    13    2
    92    15    17   ar
    93    15    16   ar
    94    28    25   ar
    95    33    32    1
    96    25    23   ar
    97    18    19    1
    98    32    20   am
    99    42    43    1
   100    42    40   ar
   101    96    95    1
   102    24    23   ar
   103    95    93   ar
   104    90    89    1
   105    90    91   ar
   106    38    40   ar
   107    23    22    1
   108    93    91   ar
   109    20    19    1
   110    20    21    2
   111    19    22    1
   112   105   103   ar
   113   105   106   ar
   114   103   102   ar
   115   124   123   ar
   116   124   122   ar
   117    97    98    1
   118   123   121   ar
   119   106   108   ar
   120   106   104   ar
   121   108   110   ar
   122   102   104   ar
   123   102   101    1
   124   122   120   ar
   125   121   118   ar
   126    98   101    1
   127    98    99    1
   128   104   107   ar
   129   120   118   ar
   130   120   119   ar
   131   110   109   ar
   132   118   116   ar
   133    99   100    2
   134   107   109   ar
   135   114   113    2
   136   119   117   ar
   137   116   117   ar
   138   116   115    1
   139   151   149   ar
   140   115   112    1
   141   113   112    1
   142   149   150   ar
   143   149   148    1
   144   112   111    1
   145   148   147    1
   146   147   144    1
   147   143   144    1
   148   144   145    1
   149   145   146    2
