@<TRIPOS>MOLECULE
tmp/2vi0A00.pdb
 174 170 0 0 0
SMALL
GASTEIGER

@<TRIPOS>ATOM
      1  N         22.2400   23.3710   13.2330 N.3     7  TRP7       -0.1241
      2  CA        23.0330   23.8960   14.3660 C.3     7  TRP7        0.1605
      3  C         22.5740   23.0320   15.5330 C.2     7  TRP7        0.2264
      4  O         21.3640   22.9620   15.8160 O.2     7  TRP7       -0.2867
      5  CB        22.7250   25.3600   14.6310 C.3     7  TRP7        0.0550
      6  CG        23.0260   25.8550   16.0060 C.ar    7  TRP7        0.0003
      7  CD1       22.1270   26.1350   16.9910 C.ar    7  TRP7        0.0946
      8  CD2       24.3240   26.1830   16.5440 C.ar    7  TRP7        0.0152
      9  NE1       22.7800   26.5820   18.1140 N.ar    7  TRP7       -0.2442
     10  CE2       24.1230   26.6450   17.8650 C.ar    7  TRP7        0.0810
     11  CE3       25.6220   26.1410   16.0350 C.ar    7  TRP7        0.0012
     12  CZ2       25.1840   27.0340   18.6970 C.ar    7  TRP7        0.0191
     13  CZ3       26.6630   26.5760   16.8350 C.ar    7  TRP7        0.0001
     14  CH2       26.4450   27.0030   18.1610 C.ar    7  TRP7        0.0015
     15  N         28.7050   24.3950   19.7670 N.3    11  GLN11      -0.1245
     16  CA        29.7080   24.2340   18.7150 C.3    11  GLN11       0.1566
     17  C         29.8420   22.7260   18.3900 C.2    11  GLN11       0.2260
     18  O         29.6820   21.8730   19.2880 O.2    11  GLN11      -0.2867
     19  CB        31.0380   24.8950   19.0920 C.3    11  GLN11       0.0367
     20  CG        30.9550   26.4220   19.2220 C.3    11  GLN11       0.0905
     21  CD        30.7430   27.1170   17.8930 C.2    11  GLN11       0.2608
     22  OE1       31.0330   26.5470   16.8430 O.2    11  GLN11      -0.2717
     23  NE2       30.2420   28.3710   17.9330 N.am   11  GLN11      -0.0878
     24  N         28.4230   28.8990   14.1250 N.3    34  PHE34      -0.1227
     25  CA        28.4690   30.3610   14.1350 C.3    34  PHE34       0.1736
     26  C         29.8180   30.7930   14.7010 C.2    34  PHE34       0.2595
     27  O         30.2550   30.2520   15.7340 O.2    34  PHE34      -0.2718
     28  CB        27.3800   30.9320   15.0430 C.3    34  PHE34       0.0547
     29  CG        25.9780   30.7220   14.5300 C.ar   34  PHE34      -0.0202
     30  CD1       25.2990   31.7250   13.8460 C.ar   34  PHE34      -0.0042
     31  CD2       25.3240   29.5180   14.7360 C.ar   34  PHE34      -0.0042
     32  CE1       24.0040   31.5090   13.3870 C.ar   34  PHE34      -0.0003
     33  CE2       24.0470   29.3130   14.2920 C.ar   34  PHE34      -0.0003
     34  CZ        23.3900   30.3070   13.6110 C.ar   34  PHE34      -0.0000
     35  N         30.4620   31.7440   14.0230 N.am   35  ILE35      -0.1966
     36  CA        31.6560   32.4090   14.5460 C.3    35  ILE35       0.1727
     37  C         31.5440   33.9190   14.3050 C.2    35  ILE35       0.2616
     38  O         30.6960   34.3590   13.5290 O.2    35  ILE35      -0.2715
     39  CB        32.9790   31.8610   13.9390 C.3    35  ILE35       0.0290
     40  CG1       33.1270   32.2660   12.4770 C.3    35  ILE35       0.0022
     41  CG2       33.0870   30.3440   14.1190 C.3    35  ILE35       0.0023
     42  CD1       34.5330   32.0180   11.9170 C.3    35  ILE35       0.0001
     43  N         32.3980   34.6900   14.9760 N.am   36  ASN36      -0.1972
     44  CA        32.4250   36.1320   14.8090 C.3    36  ASN36       0.1688
     45  C         33.6610   36.5820   14.0340 C.2    36  ASN36       0.2292
     46  O         34.4420   35.7500   13.5500 O.2    36  ASN36      -0.2864
     47  CB        32.2870   36.8710   16.1640 C.3    36  ASN36       0.1181
     48  CG        33.3470   36.4740   17.1870 C.2    36  ASN36       0.2629
     49  OD1       33.0480   36.3720   18.4190 O.2    36  ASN36      -0.2716
     50  ND2       34.5570   36.2580   16.7300 N.am   36  ASN36      -0.0877
     51  N         37.4010   35.7590   15.5010 N.3    39  THR39      -0.1218
     52  CA        37.7230   34.3350   15.5900 C.3    39  THR39       0.1862
     53  C         38.6170   33.9560   14.4110 C.2    39  THR39       0.2287
     54  O         38.2490   34.1800   13.2460 O.2    39  THR39      -0.2866
     55  CB        36.4300   33.4680   15.5450 C.3    39  THR39       0.1770
     56  OG1       35.5770   33.8820   16.6250 O.3    39  THR39      -0.2211
     57  CG2       36.7300   31.9640   15.6730 C.3    39  THR39       0.0375
     58  N         40.7420   28.3570   15.6390 N.3    43  TRP43      -0.1241
     59  CA        39.6910   28.0220   16.6070 C.3    43  TRP43       0.1605
     60  C         38.5980   27.1380   15.9620 C.2    43  TRP43       0.2264
     61  O         38.0170   26.2560   16.6100 O.2    43  TRP43      -0.2867
     62  CB        39.0960   29.3220   17.1450 C.3    43  TRP43       0.0550
     63  CG        38.0900   29.1690   18.2790 C.ar   43  TRP43       0.0003
     64  CD1       38.3430   29.2470   19.6190 C.ar   43  TRP43       0.0946
     65  CD2       36.6890   28.9170   18.1520 C.ar   43  TRP43       0.0152
     66  NE1       37.1790   29.0600   20.3380 N.ar   43  TRP43      -0.2442
     67  CE2       36.1470   28.8660   19.4570 C.ar   43  TRP43       0.0810
     68  CE3       35.8340   28.7370   17.0600 C.ar   43  TRP43       0.0012
     69  CZ2       34.7950   28.6480   19.6920 C.ar   43  TRP43       0.0191
     70  CZ3       34.5030   28.5190   17.2930 C.ar   43  TRP43       0.0001
     71  CH2       33.9910   28.4710   18.5980 C.ar   43  TRP43       0.0015
     72  N         29.7820   36.1960   11.5990 N.3    63  GLU63      -0.1245
     73  CA        29.0280   37.3330   12.1110 C.3    63  GLU63       0.1567
     74  C         29.9400   38.5040   12.4880 C.2    63  GLU63       0.2260
     75  O         30.6570   38.4210   13.4790 O.2    63  GLU63      -0.2867
     76  CB        28.2860   36.9010   13.3800 C.3    63  GLU63       0.0388
     77  CG        27.2620   35.7730   13.2070 C.3    63  GLU63       0.1160
     78  CD        26.4310   35.5860   14.4590 C.2    63  GLU63       0.3649
     79  OE1       27.0240   35.5710   15.5740 O.co2  63  GLU63      -0.2457
     80  OE2       25.1960   35.4570   14.3560 O.co2  63  GLU63      -0.2457
     81  N         30.1400   41.1400   14.3040 N.3    65  TRP65      -0.1241
     82  CA        29.8400   42.0270   15.4200 C.3    65  TRP65       0.1605
     83  C         30.8770   43.1360   15.5180 C.2    65  TRP65       0.2264
     84  O         30.5810   44.2300   16.0100 O.2    65  TRP65      -0.2867
     85  CB        29.7400   41.2950   16.7480 C.3    65  TRP65       0.0550
     86  CG        28.7100   40.2170   16.7470 C.ar   65  TRP65       0.0003
     87  CD1       28.9170   38.8860   16.4740 C.ar   65  TRP65       0.0946
     88  CD2       27.3100   40.3600   17.0010 C.ar   65  TRP65       0.0152
     89  NE1       27.7280   38.1940   16.5480 N.ar   65  TRP65      -0.2442
     90  CE2       26.7250   39.0730   16.8730 C.ar   65  TRP65       0.0810
     91  CE3       26.4870   41.4470   17.3360 C.ar   65  TRP65       0.0012
     92  CZ2       25.3770   38.8490   17.0800 C.ar   65  TRP65       0.0191
     93  CZ3       25.1340   41.2210   17.5220 C.ar   65  TRP65       0.0001
     94  CH2       24.5870   39.9400   17.3890 C.ar   65  TRP65       0.0015
     95  N         21.0050   37.7610    7.5560 N.3   102  GLU102     -0.1245
     96  CA        19.7830   38.4250    8.0190 C.3   102  GLU102      0.1567
     97  C         19.9060   39.9560    7.9600 C.2   102  GLU102      0.2260
     98  O         19.4580   40.6590    8.8600 O.2   102  GLU102     -0.2867
     99  CB        19.3760   37.9180    9.4120 C.3   102  GLU102      0.0388
    100  CG        18.9370   36.4330    9.4280 C.3   102  GLU102      0.1160
    101  CD        18.6420   35.9070   10.8280 C.2   102  GLU102      0.3649
    102  OE1       18.4490   36.7300   11.7520 O.co2 102  GLU102     -0.2457
    103  OE2       18.5730   34.6620   11.0030 O.co2 102  GLU102     -0.2457
    104  N         21.0290   42.9050   13.8140 N.3   108  TYR108     -0.1241
    105  CA        22.4830   42.7880   13.7020 C.3   108  TYR108      0.1605
    106  C         23.1130   44.1010   13.2560 C.2   108  TYR108      0.2264
    107  O         22.5450   44.8150   12.4250 O.2   108  TYR108     -0.2867
    108  CB        22.8430   41.6860   12.7120 C.3   108  TYR108      0.0534
    109  CG        22.4560   40.2740   13.1430 C.ar  108  TYR108     -0.0201
    110  CD1       22.7650   39.8080   14.4120 C.ar  108  TYR108     -0.0009
    111  CD2       21.8300   39.4000   12.2620 C.ar  108  TYR108     -0.0009
    112  CE1       22.4380   38.5570   14.8150 C.ar  108  TYR108      0.0417
    113  CE2       21.4910   38.1170   12.6390 C.ar  108  TYR108      0.0417
    114  CZ        21.7970   37.6790   13.9150 C.ar  108  TYR108      0.1957
    115  OH        21.4700   36.4020   14.2980 O.3   108  TYR108     -0.2866
    116  N         11.4430   31.5050   11.8210 N.3   178  TYR178     -0.1241
    117  CA        10.9470   30.7360   12.9530 C.3   178  TYR178      0.1605
    118  C          9.4500   30.9010   13.0740 C.2   178  TYR178      0.2264
    119  O          8.9000   31.9800   12.7830 O.2   178  TYR178     -0.2867
    120  CB        11.5960   31.2230   14.2420 C.3   178  TYR178      0.0534
    121  CG        13.0900   30.9850   14.2230 C.ar  178  TYR178     -0.0201
    122  CD1       13.6410   29.9150   14.8900 C.ar  178  TYR178     -0.0009
    123  CD2       13.9300   31.7820   13.4510 C.ar  178  TYR178     -0.0009
    124  CE1       14.9870   29.6750   14.8680 C.ar  178  TYR178      0.0417
    125  CE2       15.3040   31.5200   13.4040 C.ar  178  TYR178      0.0417
    126  CZ        15.8130   30.4670   14.1250 C.ar  178  TYR178      0.1957
    127  OH        17.1450   30.1870   14.0910 O.3   178  TYR178     -0.2866
    128  N         18.2390   28.4080    8.6380 N.3   215  GLU215     -0.1245
    129  CA        17.7670   28.3040   10.0340 C.3   215  GLU215      0.1567
    130  C         16.2680   28.1980   10.0170 C.2   215  GLU215      0.2260
    131  O         15.5930   29.0190    9.4050 O.2   215  GLU215     -0.2867
    132  CB        18.1060   29.5400   10.8670 C.3   215  GLU215      0.0388
    133  CG        19.5270   29.9080   10.9760 C.3   215  GLU215      0.1160
    134  CD        19.7520   31.1690   11.8570 C.2   215  GLU215      0.3649
    135  OE1       18.8230   31.6170   12.5890 O.co2 215  GLU215     -0.2457
    136  OE2       20.8730   31.7050   11.8070 O.co2 215  GLU215     -0.2457
    137  N         17.4680   24.7670   13.5930 N.3   249  PHE249     -0.1241
    138  CA        18.1370   25.5080   14.6270 C.3   249  PHE249      0.1605
    139  C         17.7650   24.8790   15.9830 C.2   249  PHE249      0.2264
    140  O         16.7090   25.1680   16.5440 O.2   249  PHE249     -0.2867
    141  CB        17.7230   26.9700   14.5660 C.3   249  PHE249      0.0534
    142  CG        18.5160   27.8290   15.4740 C.ar  249  PHE249     -0.0203
    143  CD1       19.7980   28.2930   15.1110 C.ar  249  PHE249     -0.0042
    144  CD2       18.0100   28.1620   16.7110 C.ar  249  PHE249     -0.0042
    145  CE1       20.5510   29.0940   16.0120 C.ar  249  PHE249     -0.0003
    146  CE2       18.7400   28.9570   17.5890 C.ar  249  PHE249     -0.0003
    147  CZ        20.0170   29.4230   17.2400 C.ar  249  PHE249     -0.0000
    148  N         18.2340   24.5520   19.5870 N.3   251  GLU251     -0.1245
    149  CA        18.7610   25.2280   20.7540 C.3   251  GLU251      0.1567
    150  C         17.6000   25.5870   21.6420 C.2   251  GLU251      0.2260
    151  O         16.5340   25.9400   21.1810 O.2   251  GLU251     -0.2867
    152  CB        19.5780   26.4750   20.3920 C.3   251  GLU251      0.0388
    153  CG        20.4550   26.9180   21.5740 C.3   251  GLU251      0.1160
    154  CD        21.3070   28.1240   21.3060 C.2   251  GLU251      0.3649
    155  OE1       21.8780   28.2130   20.2160 O.co2 251  GLU251     -0.2457
    156  OE2       21.4380   28.9900   22.2240 O.co2 251  GLU251     -0.2457
    157  N         16.6240   28.2310   23.6500 N.3   253  LYS253     -0.1231
    158  CA        17.1180   29.6070   23.6350 C.3   253  LYS253      0.1693
    159  C         15.9970   30.6160   23.9840 C.2   253  LYS253      0.2591
    160  O         15.5640   30.6520   25.1460 O.2   253  LYS253     -0.2718
    161  CB        17.7820   29.8910   22.2780 C.3   253  LYS253      0.0285
    162  CG        18.6860   31.1280   22.2490 C.3   253  LYS253      0.0035
    163  CD        19.4300   31.2630   20.9100 C.3   253  LYS253      0.0206
    164  CE        20.5600   32.2770   21.0110 C.3   253  LYS253      0.1093
    165  NZ        21.0890   32.7310   19.6990 N.3   253  LYS253     -0.1314
    166  N         15.5240   31.4300   23.0200 N.am  254  GLU254     -0.1979
    167  CA        14.3820   32.3360   23.2530 C.3   254  GLU254      0.1602
    168  C         13.2120   31.4990   23.7470 C.2   254  GLU254      0.2287
    169  O         12.4740   31.8860   24.6590 O.2   254  GLU254     -0.2864
    170  CB        13.9550   33.0700   21.9720 C.3   254  GLU254      0.0415
    171  CG        14.9840   34.0320   21.4010 C.3   254  GLU254      0.1163
    172  CD        15.8780   33.4100   20.3140 C.2   254  GLU254      0.3649
    173  OE1       16.1840   32.1870   20.3770 O.co2 254  GLU254     -0.2457
    174  OE2       16.2930   34.1540   19.4040 O.co2 254  GLU254     -0.2457
@<TRIPOS>BOND
     1    95    96    1
     2    97    96    1
     3    97    98    2
     4    96    99    1
     5   128   129    1
     6   131   130    2
     7    99   100    1
     8   100   101    1
     9   130   129    1
    10   129   132    1
    11   101   103   ar
    12   101   102   ar
    13   132   133    1
    14   133   134    1
    15    72    73    1
    16   136   134   ar
    17   116   117    1
    18   134   135   ar
    19    42    40    1
    20    73    74    1
    21    73    76    1
    22   111   113   ar
    23   111   109   ar
    24   107   106    2
    25    40    39    1
    26    74    75    2
    27   113   114   ar
    28   108   109    1
    29   108   105    1
    30   119   118    2
    31   117   118    1
    32   117   120    1
    33   109   110   ar
    34    77    76    1
    35    77    78    1
    36     1     2    1
    37    54    53    2
    38   106   105    1
    39    32    34   ar
    40    32    30   ar
    41   125   123   ar
    42   125   126   ar
    43   123   121   ar
    44    38    37    2
    45    46    45    2
    46   137   138    1
    47    34    33   ar
    48   105   104    1
    49    30    29   ar
    50   114   115    1
    51   114   112   ar
    52    39    41    1
    53    39    36    1
    54    35    36    1
    55    35    26   am
    56    45    44    1
    57   127   126    1
    58    24    25    1
    59   126   124   ar
    60    25    26    1
    61    25    28    1
    62   121   120    1
    63   121   122   ar
    64    33    31   ar
    65    81    82    1
    66    37    36    1
    67    37    43   am
    68    80    78   ar
    69     2     5    1
    70     2     3    1
    71    53    52    1
    72   110   112   ar
    73    78    79   ar
    74    29    31   ar
    75    29    28    1
    76   141   138    1
    77   141   142    1
    78   138   139    1
    79     5     6    1
    80    26    27    2
    81    44    43    1
    82    44    47    1
    83   124   122   ar
    84   143   142   ar
    85   143   145   ar
    86    82    83    1
    87    82    85    1
    88   142   144   ar
    89    51    52    1
    90    83    84    2
    91     3     4    2
    92    55    52    1
    93    55    57    1
    94    55    56    1
    95    58    59    1
    96    60    59    1
    97    60    61    2
    98   139   140    2
    99     6     8   ar
   100     6     7   ar
   101   145   147   ar
   102    11     8   ar
   103    11    13   ar
   104    47    48    1
   105    87    89   ar
   106    87    86   ar
   107     8    10   ar
   108    89    90   ar
   109    59    62    1
   110   144   146   ar
   111    50    48   am
   112    86    85    1
   113    86    88   ar
   114    13    14   ar
   115    22    21    2
   116    90    88   ar
   117    90    92   ar
   118     7     9   ar
   119    88    91   ar
   120    68    70   ar
   121    68    65   ar
   122    92    94   ar
   123    62    63    1
   124    48    49    2
   125   147   146   ar
   126    70    71   ar
   127    91    93   ar
   128    94    93   ar
   129    10     9   ar
   130    10    12   ar
   131    21    23   am
   132    21    20    1
   133    65    63   ar
   134    65    67   ar
   135    14    12   ar
   136    63    64   ar
   137    17    16    1
   138    17    18    2
   139    71    69   ar
   140    16    19    1
   141    16    15    1
   142    19    20    1
   143   174   172   ar
   144    67    69   ar
   145    67    66   ar
   146   148   149    1
   147    64    66   ar
   148   165   164    1
   149   155   154   ar
   150   172   173   ar
   151   172   171    1
   152   152   149    1
   153   152   153    1
   154   149   150    1
   155   163   164    1
   156   163   162    1
   157   151   150    2
   158   154   153    1
   159   154   156   ar
   160   171   170    1
   161   170   167    1
   162   162   161    1
   163   161   158    1
   164   166   167    1
   165   166   159   am
   166   167   168    1
   167   158   157    1
   168   158   159    1
   169   168   169    2
   170   159   160    2
