@<TRIPOS>MOLECULE
tmp/2vi5E01.pdb
 118 116 0 0 0
SMALL
GASTEIGER

@<TRIPOS>ATOM
      1  N        -12.4340   18.6190   -0.1250 N.3    16  SER16      -0.1217
      2  CA       -11.7550   19.1540   -1.3050 C.3    16  SER16       0.1889
      3  C        -12.7350   19.9660   -2.1600 C.2    16  SER16       0.2288
      4  O        -13.9360   19.9750   -1.8850 O.2    16  SER16      -0.2866
      5  CB       -11.0520   18.0530   -2.1050 C.3    16  SER16       0.2089
      6  OG       -11.9670   17.1000   -2.6010 O.3    16  SER16      -0.2183
      7  N        -12.3890   20.3700   -5.9060 N.3    18  TRP18      -0.1227
      8  CA       -12.4760   19.8770   -7.2800 C.3    18  TRP18       0.1737
      9  C        -13.8410   19.2450   -7.5480 C.2    18  TRP18       0.2595
     10  O        -14.1280   18.1520   -7.0540 O.2    18  TRP18      -0.2718
     11  CB       -11.3970   18.8220   -7.5180 C.3    18  TRP18       0.0564
     12  CG       -10.1800   19.2870   -8.2340 C.ar   18  TRP18       0.0003
     13  CD1       -9.1030   19.9280   -7.6950 C.ar   18  TRP18       0.0946
     14  CD2       -9.8930   19.1140   -9.6250 C.ar   18  TRP18       0.0152
     15  NE1       -8.1660   20.1810   -8.6690 N.ar   18  TRP18      -0.2442
     16  CE2       -8.6260   19.6920   -9.8640 C.ar   18  TRP18       0.0810
     17  CE3      -10.5880   18.5330  -10.6960 C.ar   18  TRP18       0.0012
     18  CZ2       -8.0370   19.7070  -11.1310 C.ar   18  TRP18       0.0191
     19  CZ3      -10.0020   18.5490  -11.9560 C.ar   18  TRP18       0.0001
     20  CH2       -8.7380   19.1330  -12.1610 C.ar   18  TRP18       0.0015
     21  N        -14.6570   19.9340   -8.3500 N.am   19  HIS19      -0.1975
     22  CA       -16.0720   19.5940   -8.6020 C.3    19  HIS19       0.1656
     23  C        -16.9610   20.2320   -7.5240 C.2    19  HIS19       0.2291
     24  O        -17.6850   19.5400   -6.8030 O.2    19  HIS19      -0.2864
     25  CB       -16.3150   18.0750   -8.7130 C.3    19  HIS19       0.0771
     26  CG       -15.4780   17.3960   -9.7560 C.ar   19  HIS19       0.0820
     27  ND1      -15.6980   17.5510  -11.1080 N.ar   19  HIS19      -0.2267
     28  CD2      -14.4210   16.5540   -9.6430 C.ar   19  HIS19       0.1154
     29  CE1      -14.8120   16.8390  -11.7820 C.ar   19  HIS19       0.1986
     30  NE2      -14.0230   16.2270  -10.9160 N.ar   19  HIS19      -0.2212
     31  N         -7.9660   22.0080   -2.0620 N.3    48  LEU48      -0.1231
     32  CA        -8.2140   22.0660   -3.5040 C.3    48  LEU48       0.1693
     33  C         -8.5770   20.7000   -4.0810 C.2    48  LEU48       0.2593
     34  O         -9.6540   20.5350   -4.6580 O.2    48  LEU48      -0.2718
     35  CB        -7.0300   22.6870   -4.2660 C.3    48  LEU48       0.0284
     36  CG        -7.2410   22.9310   -5.7730 C.3    48  LEU48       0.0019
     37  CD1       -8.3150   23.9780   -6.0350 C.3    48  LEU48       0.0001
     38  CD2       -5.9420   23.3170   -6.4720 C.3    48  LEU48       0.0001
     39  N         -7.6790   19.7300   -3.9210 N.am   49  GLY49      -0.1942
     40  CA        -7.8970   18.3820   -4.4400 C.3    49  GLY49       0.2014
     41  C         -7.8810   17.3220   -3.3580 C.2    49  GLY49       0.2639
     42  O         -7.5340   17.5970   -2.2060 O.2    49  GLY49      -0.2714
     43  N         -8.2540   16.1020   -3.7420 N.am   50  ALA50      -0.1963
     44  CA        -8.3290   14.9660   -2.8200 C.3    50  ALA50       0.1728
     45  C         -6.9760   14.5350   -2.2550 C.2    50  ALA50       0.2616
     46  O         -6.9120   13.9890   -1.1520 O.2    50  ALA50      -0.2715
     47  CB        -9.0230   13.7900   -3.4840 C.3    50  ALA50       0.0334
     48  N         -5.9000   14.7870   -3.0010 N.am   51  ILE51      -0.1963
     49  CA        -4.5450   14.4530   -2.5400 C.3    51  ILE51       0.1727
     50  C         -4.1190   15.3220   -1.3500 C.2    51  ILE51       0.2616
     51  O         -3.2820   14.9190   -0.5440 O.2    51  ILE51      -0.2715
     52  CB        -3.5060   14.4760   -3.7030 C.3    51  ILE51       0.0290
     53  CG1       -3.6610   13.2130   -4.5590 C.3    51  ILE51       0.0022
     54  CG2       -2.0700   14.5890   -3.1780 C.3    51  ILE51       0.0023
     55  CD1       -2.7620   13.1490   -5.7800 C.3    51  ILE51       0.0001
     56  N         -4.7320   16.4950   -1.2320 N.am   52  GLU52      -0.1977
     57  CA        -4.4290   17.4400   -0.1590 C.3    52  GLU52       0.1602
     58  C         -5.1510   17.1140    1.1530 C.2    52  GLU52       0.2287
     59  O         -4.8440   17.6960    2.2000 O.2    52  GLU52      -0.2864
     60  CB        -4.7670   18.8640   -0.6140 C.3    52  GLU52       0.0415
     61  CG        -3.7450   19.4720   -1.5720 C.3    52  GLU52       0.1163
     62  CD        -3.7940   18.8920   -2.9770 C.2    52  GLU52       0.3649
     63  OE1       -4.8340   19.0340   -3.6470 O.co2  52  GLU52      -0.2457
     64  OE2       -2.7800   18.3150   -3.4240 O.co2  52  GLU52      -0.2457
     65  N        -14.5130   14.5380   -4.3310 N.3    72  VAL72      -0.1231
     66  CA       -15.0520   13.9190   -5.5300 C.3    72  VAL72       0.1692
     67  C        -13.9240   13.6780   -6.5170 C.2    72  VAL72       0.2592
     68  O        -13.3130   14.6240   -7.0140 O.2    72  VAL72      -0.2718
     69  CB       -16.1460   14.7960   -6.1930 C.3    72  VAL72       0.0266
     70  CG1      -16.7940   14.0590   -7.3540 C.3    72  VAL72       0.0020
     71  CG2      -17.1970   15.2110   -5.1740 C.3    72  VAL72       0.0020
     72  N        -13.6410   12.4050   -6.7760 N.am   73  VAL73      -0.1966
     73  CA       -12.6890   12.0230   -7.8140 C.3    73  VAL73       0.1727
     74  C        -13.4370   11.3160   -8.9460 C.2    73  VAL73       0.2616
     75  O        -14.0080   10.2380   -8.7530 O.2    73  VAL73      -0.2715
     76  CB       -11.5280   11.1430   -7.2720 C.3    73  VAL73       0.0290
     77  CG1      -10.4280   11.0110   -8.3130 C.3    73  VAL73       0.0023
     78  CG2      -10.9460   11.7330   -5.9890 C.3    73  VAL73       0.0023
     79  N        -13.4470   11.9510  -10.1170 N.am   74  ILE74      -0.1977
     80  CA       -14.1000   11.4120  -11.3130 C.3    74  ILE74       0.1596
     81  C        -13.0340   10.9450  -12.2870 C.2    74  ILE74       0.2287
     82  O        -12.0940   11.6860  -12.5800 O.2    74  ILE74      -0.2864
     83  CB       -14.9540   12.4880  -12.0430 C.3    74  ILE74       0.0276
     84  CG1      -15.8070   13.3070  -11.0590 C.3    74  ILE74       0.0022
     85  CG2      -15.8010   11.8610  -13.1600 C.3    74  ILE74       0.0022
     86  CD1      -17.1730   12.7400  -10.7700 C.3    74  ILE74       0.0001
     87  N        -10.9920   10.2730  -15.5060 N.3    76  GLY76      -0.1225
     88  CA       -10.7930   10.9970  -16.7550 C.3    76  GLY76       0.1811
     89  C        -10.3430   10.0900  -17.8830 C.2    76  GLY76       0.2280
     90  O        -10.8640    8.9820  -18.0470 O.2    76  GLY76      -0.2866
     91  N         -4.5750    8.3230  -14.1200 N.3    80  HIS80      -0.1226
     92  CA        -4.3470    9.2210  -12.9810 C.3    80  HIS80       0.1752
     93  C         -5.4000    9.0910  -11.8750 C.2    80  HIS80       0.2596
     94  O         -5.0890    9.2880  -10.6970 O.2    80  HIS80      -0.2718
     95  CB        -4.2250   10.6760  -13.4550 C.3    80  HIS80       0.0759
     96  CG        -3.7410   11.6200  -12.3980 C.ar   80  HIS80       0.0818
     97  ND1       -2.4840   11.5330  -11.8390 N.ar   80  HIS80      -0.2268
     98  CD2       -4.3450   12.6750  -11.8010 C.ar   80  HIS80       0.1154
     99  CE1       -2.3380   12.4890  -10.9390 C.ar   80  HIS80       0.1986
    100  NE2       -3.4510   13.1980  -10.8980 N.ar   80  HIS80      -0.2212
    101  N         -6.6290    8.7430  -12.2620 N.am   81  PHE81      -0.1976
    102  CA        -7.7230    8.4790  -11.3250 C.3    81  PHE81       0.1639
    103  C         -7.3320    7.4410  -10.2730 C.2    81  PHE81       0.2290
    104  O         -7.5260    7.6610   -9.0770 O.2    81  PHE81      -0.2864
    105  CB        -8.9690    8.0150  -12.0930 C.3    81  PHE81       0.0560
    106  CG       -10.1010    7.5570  -11.2130 C.ar   81  PHE81      -0.0200
    107  CD1      -10.9830    8.4760  -10.6530 C.ar   81  PHE81      -0.0042
    108  CD2      -10.2930    6.2030  -10.9520 C.ar   81  PHE81      -0.0042
    109  CE1      -12.0330    8.0570   -9.8430 C.ar   81  PHE81      -0.0003
    110  CE2      -11.3400    5.7730  -10.1380 C.ar   81  PHE81      -0.0003
    111  CZ       -12.2130    6.7040   -9.5840 C.ar   81  PHE81      -0.0000
    112  N         -4.6290    8.7680   -7.7110 N.3    84  VAL84      -0.1245
    113  CA        -5.1890    9.7700   -6.8030 C.3    84  VAL84       0.1561
    114  C         -5.9900    9.0880   -5.6900 C.2    84  VAL84       0.2260
    115  O         -5.8450    9.4240   -4.5150 O.2    84  VAL84      -0.2867
    116  CB        -6.0570   10.8080   -7.5570 C.3    84  VAL84       0.0252
    117  CG1       -6.9320   11.6030   -6.5960 C.3    84  VAL84       0.0019
    118  CG2       -5.1760   11.7440   -8.3620 C.3    84  VAL84       0.0019
@<TRIPOS>BOND
     1    90    89    2
     2    89    88    1
     3    88    87    1
     4    91    92    1
     5    95    92    1
     6    95    96    1
     7    85    83    1
     8    92    93    1
     9    82    81    2
    10    96    97   ar
    11    96    98   ar
    12    81    80    1
    13   101    93   am
    14   101   102    1
    15    20    19   ar
    16    20    18   ar
    17   105   102    1
    18   105   106    1
    19    83    80    1
    20    83    84    1
    21    19    17   ar
    22    93    94    2
    23    97    99   ar
    24    98   100   ar
    25    29    27   ar
    26    29    30   ar
    27   102   103    1
    28    80    79    1
    29   106   108   ar
    30   106   107   ar
    31    18    16   ar
    32    27    26   ar
    33    84    86    1
    34   108   110   ar
    35    99   100   ar
    36    30    28   ar
    37    17    14   ar
    38   107   109   ar
    39   103   104    2
    40   110   111   ar
    41    79    74   am
    42    16    14   ar
    43    16    15   ar
    44   109   111   ar
    45    26    28   ar
    46    26    25    1
    47    14    12   ar
    48    74    75    2
    49    74    73    1
    50    25    22    1
    51    15    13   ar
    52    22    21    1
    53    22    23    1
    54   118   116    1
    55    21     9   am
    56    77    76    1
    57    12    13   ar
    58    12    11    1
    59    73    76    1
    60    73    72    1
    61   112   113    1
    62   116   113    1
    63   116   117    1
    64     9     8    1
    65     9    10    2
    66    23    24    2
    67    11     8    1
    68    70    69    1
    69     8     7    1
    70    76    78    1
    71    68    67    2
    72   113   114    1
    73    72    67   am
    74    67    66    1
    75    38    36    1
    76    69    66    1
    77    69    71    1
    78    37    36    1
    79    55    53    1
    80    36    35    1
    81   114   115    2
    82    66    65    1
    83    34    33    2
    84    53    52    1
    85    40    39    1
    86    40    41    1
    87    35    32    1
    88    33    39   am
    89    33    32    1
    90    43    41   am
    91    43    44    1
    92    52    54    1
    93    52    49    1
    94    63    62   ar
    95    32    31    1
    96    47    44    1
    97    64    62   ar
    98    41    42    2
    99    48    49    1
   100    48    45   am
   101    62    61    1
   102    44    45    1
   103     6     5    1
   104    49    50    1
   105    45    46    2
   106     3     4    2
   107     3     2    1
   108     5     2    1
   109    61    60    1
   110    50    56   am
   111    50    51    2
   112     2     1    1
   113    56    57    1
   114    60    57    1
   115    57    58    1
   116    58    59    2
