@<TRIPOS>MOLECULE
tmp/2vigF02.pdb
 126 117 0 0 0
SMALL
GASTEIGER

@<TRIPOS>ATOM
      1  N        -52.2930  -29.9080   80.3860 N.3    89  LEU89      -0.1245
      2  CA       -51.3280  -30.4910   79.4990 C.3    89  LEU89       0.1561
      3  C        -51.8610  -31.6670   78.6770 C.2    89  LEU89       0.2260
      4  O        -51.3580  -31.9260   77.5930 O.2    89  LEU89      -0.2867
      5  CB       -50.0990  -30.9440   80.2990 C.3    89  LEU89       0.0270
      6  CG       -49.4040  -29.8800   81.1740 C.3    89  LEU89       0.0019
      7  CD1      -48.1030  -30.4930   81.6870 C.3    89  LEU89       0.0001
      8  CD2      -49.1330  -28.5320   80.4480 C.3    89  LEU89       0.0001
      9  N        -48.2970  -35.8270   79.5860 N.3   119  PHE119     -0.1241
     10  CA       -47.7390  -34.9440   78.5810 C.3   119  PHE119      0.1605
     11  C        -46.2400  -35.1790   78.4670 C.2   119  PHE119      0.2264
     12  O        -45.5290  -35.0550   79.4370 O.2   119  PHE119     -0.2867
     13  CB       -48.0930  -33.5270   79.0130 C.3   119  PHE119      0.0534
     14  CG       -47.5020  -32.4290   78.1730 C.ar  119  PHE119     -0.0203
     15  CD1      -48.2060  -31.9000   77.0950 C.ar  119  PHE119     -0.0042
     16  CD2      -46.2910  -31.8400   78.5380 C.ar  119  PHE119     -0.0042
     17  CE1      -47.6670  -30.8420   76.3480 C.ar  119  PHE119     -0.0003
     18  CE2      -45.7540  -30.7860   77.8000 C.ar  119  PHE119     -0.0003
     19  CZ       -46.4410  -30.2870   76.7100 C.ar  119  PHE119     -0.0000
     20  N        -43.0030  -34.2440   76.5870 N.3   121  LEU121     -0.1231
     21  CA       -42.2110  -33.3200   75.7680 C.3   121  LEU121      0.1693
     22  C        -40.7100  -33.4780   76.0320 C.2   121  LEU121      0.2592
     23  O        -39.9080  -33.6740   75.1010 O.2   121  LEU121     -0.2718
     24  CB       -42.6320  -31.8750   76.0490 C.3   121  LEU121      0.0284
     25  CG       -41.8740  -30.7550   75.3140 C.3   121  LEU121      0.0019
     26  CD1      -41.8580  -31.0000   73.8020 C.3   121  LEU121      0.0001
     27  CD2      -42.4570  -29.3840   75.6800 C.3   121  LEU121      0.0001
     28  N        -40.3450  -33.3950   77.3090 N.am  122  SER122     -0.1952
     29  CA       -38.9360  -33.4720   77.7080 C.3   122  SER122      0.1924
     30  C        -38.3510  -34.8430   77.4330 C.2   122  SER122      0.2314
     31  O        -39.0690  -35.8510   77.3640 O.2   122  SER122     -0.2863
     32  CB       -38.7470  -33.1120   79.1850 C.3   122  SER122      0.2116
     33  OG       -39.4750  -31.9510   79.5540 O.3   122  SER122     -0.2180
     34  N        -34.6540  -30.5620   78.3240 N.3   127  GLY127     -0.1210
     35  CA       -35.8980  -30.1410   78.9300 C.3   127  GLY127      0.1956
     36  C        -36.2070  -28.7060   78.5450 C.2   127  GLY127      0.2612
     37  O        -37.2190  -28.4320   77.9240 O.2   127  GLY127     -0.2717
     38  N        -35.3090  -27.7860   78.8640 N.am  128  SER128     -0.1952
     39  CA       -35.5140  -26.3760   78.5010 C.3   128  SER128      0.1924
     40  C        -35.4630  -26.1620   76.9910 C.2   128  SER128      0.2314
     41  O        -36.2770  -25.4350   76.4150 O.2   128  SER128     -0.2863
     42  CB       -34.4690  -25.5040   79.1790 C.3   128  SER128      0.2116
     43  OG       -34.5390  -25.6010   80.5830 O.3   128  SER128     -0.2180
     44  N        -36.5150  -27.5540   74.3830 N.3   130  ALA130     -0.1245
     45  CA       -37.6130  -28.4670   74.0430 C.3   130  ALA130      0.1562
     46  C        -37.5890  -28.9080   72.5820 C.2   130  ALA130      0.2260
     47  O        -37.9140  -30.0630   72.2660 O.2   130  ALA130     -0.2867
     48  CB       -38.9640  -27.8130   74.3720 C.3   130  ALA130      0.0290
     49  N        -44.1120  -28.1090   67.7050 N.3   222  PHE222     -0.1241
     50  CA       -43.4660  -27.1350   68.5820 C.3   222  PHE222      0.1605
     51  C        -44.4610  -26.0680   69.0800 C.2   222  PHE222      0.2264
     52  O        -44.5240  -25.7890   70.2850 O.2   222  PHE222     -0.2867
     53  CB       -42.2470  -26.5060   67.9240 C.3   222  PHE222      0.0534
     54  CG       -41.4340  -25.6820   68.8750 C.ar  222  PHE222     -0.0203
     55  CD1      -40.5840  -26.2960   69.7820 C.ar  222  PHE222     -0.0042
     56  CD2      -41.5530  -24.2930   68.8930 C.ar  222  PHE222     -0.0042
     57  CE1      -39.8430  -25.5470   70.6790 C.ar  222  PHE222     -0.0003
     58  CE2      -40.8170  -23.5320   69.7960 C.ar  222  PHE222     -0.0003
     59  CZ       -39.9570  -24.1630   70.6850 C.ar  222  PHE222     -0.0000
     60  N        -45.7210  -25.3050   72.8810 N.3   226  MET226     -0.1245
     61  CA       -45.5690  -23.9600   73.4360 C.3   226  MET226      0.1570
     62  C        -46.8980  -23.3840   73.9090 C.2   226  MET226      0.2261
     63  O        -46.9690  -22.8240   74.9980 O.2   226  MET226     -0.2867
     64  CB       -44.8690  -23.0140   72.4510 C.3   226  MET226      0.0387
     65  CG       -43.3960  -23.3570   72.2240 C.3   226  MET226      0.0595
     66  SD       -42.3870  -23.5840   73.7240 S.3   226  MET226     -0.1393
     67  CE       -42.2410  -25.3740   73.8840 C.3   226  MET226      0.0692
     68  N        -48.0330  -25.2670   77.1460 N.3   229  LEU229     -0.1245
     69  CA       -47.3060  -24.7550   78.3010 C.3   229  LEU229      0.1561
     70  C        -47.7900  -23.3890   78.7790 C.2   229  LEU229      0.2260
     71  O        -47.7260  -23.1180   79.9570 O.2   229  LEU229     -0.2867
     72  CB       -45.7970  -24.7590   78.0340 C.3   229  LEU229      0.0270
     73  CG       -45.2140  -26.1810   78.0480 C.3   229  LEU229      0.0019
     74  CD1      -43.8170  -26.2320   77.3990 C.3   229  LEU229      0.0001
     75  CD2      -45.1710  -26.7260   79.4730 C.3   229  LEU229      0.0001
     76  N        -48.8300  -23.1900   82.5510 N.3   233  ARG233     -0.1245
     77  CA       -48.2210  -22.2330   83.4680 C.3   233  ARG233      0.1563
     78  C        -49.2110  -21.5640   84.4110 C.2   233  ARG233      0.2260
     79  O        -48.8530  -21.2410   85.5550 O.2   233  ARG233     -0.2867
     80  CB       -47.4110  -21.2050   82.6850 C.3   233  ARG233      0.0307
     81  CG       -46.1010  -21.7970   82.2400 C.3   233  ARG233      0.0489
     82  CD       -45.4000  -21.0050   81.1640 C.3   233  ARG233      0.2205
     83  NE       -44.2490  -21.7720   80.6670 N.pl3 233  ARG233     -0.0865
     84  CZ       -43.4950  -21.4280   79.6290 C.cat 233  ARG233      0.5346
     85  NH1      -43.7330  -20.3170   78.9400 N.pl3 233  ARG233      0.1354
     86  NH2      -42.5040  -22.2200   79.2630 N.pl3 233  ARG233      0.1354
     87  N        -40.3760  -27.0050   86.8960 N.3   352  TYR352     -0.1227
     88  CA       -41.1550  -27.5990   85.8110 C.3   352  TYR352      0.1736
     89  C        -42.1010  -26.6160   85.0870 C.2   352  TYR352      0.2595
     90  O        -42.4250  -25.5360   85.5860 O.2   352  TYR352     -0.2718
     91  CB       -41.8080  -28.9380   86.1990 C.3   352  TYR352      0.0548
     92  CG       -42.9080  -28.9520   87.2420 C.ar  352  TYR352     -0.0200
     93  CD1      -43.4400  -30.1660   87.6530 C.ar  352  TYR352     -0.0009
     94  CD2      -43.4140  -27.7950   87.8160 C.ar  352  TYR352     -0.0009
     95  CE1      -44.4290  -30.2390   88.6200 C.ar  352  TYR352      0.0417
     96  CE2      -44.4320  -27.8590   88.7980 C.ar  352  TYR352      0.0417
     97  CZ       -44.9290  -29.0960   89.1800 C.ar  352  TYR352      0.1957
     98  OH       -45.9270  -29.2180   90.1050 O.3   352  TYR352     -0.2866
     99  N        -42.5050  -27.0360   83.8940 N.am  353  GLU353     -0.1965
    100  CA       -43.2060  -26.2160   82.9190 C.3   353  GLU353      0.1733
    101  C        -42.4170  -24.9600   82.5220 C.2   353  GLU353      0.2616
    102  O        -42.9840  -23.9100   82.2840 O.2   353  GLU353     -0.2715
    103  CB       -44.6470  -25.9400   83.3650 C.3   353  GLU353      0.0429
    104  CG       -45.4560  -27.2560   83.6230 C.3   353  GLU353      0.1163
    105  CD       -46.9560  -27.0890   83.4430 C.2   353  GLU353      0.3649
    106  OE1      -47.3260  -26.1600   82.7150 O.co2 353  GLU353     -0.2457
    107  OE2      -47.7620  -27.8760   84.0140 O.co2 353  GLU353     -0.2457
    108  N        -41.0970  -25.1100   82.4120 N.am  354  GLY354     -0.1955
    109  CA       -40.2180  -24.0060   82.0970 C.3   354  GLY354      0.1869
    110  C        -39.6660  -23.4070   83.3680 C.2   354  GLY354      0.2309
    111  O        -40.4100  -22.8730   84.1910 O.2   354  GLY354     -0.2863
    112  N        -36.1050  -19.6500   81.9870 N.3   358  ILE358     -0.1245
    113  CA       -36.8600  -19.7020   80.7640 C.3   358  ILE358      0.1561
    114  C        -38.0190  -18.6980   80.8390 C.2   358  ILE358      0.2260
    115  O        -38.2580  -17.9750   79.8800 O.2   358  ILE358     -0.2867
    116  CB       -37.3040  -21.1780   80.4400 C.3   358  ILE358      0.0252
    117  CG1      -36.2400  -21.9390   79.6160 C.3   358  ILE358      0.0019
    118  CG2      -38.6660  -21.2170   79.6640 C.3   358  ILE358      0.0019
    119  CD1      -34.7540  -21.5910   79.8730 C.3   358  ILE358      0.0001
    120  N        -38.8250  -15.6090   78.2250 N.3   362  VAL362     -0.1245
    121  CA       -40.1220  -15.4180   77.5890 C.3   362  VAL362      0.1561
    122  C        -40.6810  -14.0300   77.8760 C.2   362  VAL362      0.2260
    123  O        -41.1220  -13.3500   76.9360 O.2   362  VAL362     -0.2867
    124  CB       -41.1580  -16.5360   78.0110 C.3   362  VAL362      0.0252
    125  CG1      -42.6200  -16.1990   77.5790 C.3   362  VAL362      0.0019
    126  CG2      -40.7000  -17.9170   77.4860 C.3   362  VAL362      0.0019
@<TRIPOS>BOND
     1    49    50    1
     2    53    50    1
     3    53    54    1
     4    50    51    1
     5    54    56   ar
     6    54    55   ar
     7    56    58   ar
     8    51    52    2
     9    55    57   ar
    10    58    59   ar
    11    57    59   ar
    12    65    64    1
    13    65    66    1
    14    47    46    2
    15    64    61    1
    16    46    45    1
    17    60    61    1
    18    61    62    1
    19    66    67    1
    20    26    25    1
    21    62    63    2
    22    45    48    1
    23    45    44    1
    24    23    22    2
    25    25    27    1
    26    25    24    1
    27    21    22    1
    28    21    24    1
    29    21    20    1
    30    22    28   am
    31    17    19   ar
    32    17    15   ar
    33    41    40    2
    34    19    18   ar
    35   123   122    2
    36    40    39    1
    37    15    14   ar
    38    68    69    1
    39    28    29    1
    40    31    30    2
    41    74    73    1
    42    30    29    1
    43   126   124    1
    44   125   124    1
    45   121   122    1
    46   121   124    1
    47   121   120    1
    48     4     3    2
    49    29    32    1
    50    18    16   ar
    51    37    36    2
    52    72    73    1
    53    72    69    1
    54    73    75    1
    55    14    16   ar
    56    14    13    1
    57    69    70    1
    58    34    35    1
    59    11    10    1
    60    11    12    2
    61    39    38    1
    62    39    42    1
    63    36    38   am
    64    36    35    1
    65    10    13    1
    66    10     9    1
    67     3     2    1
    68    70    71    2
    69    85    84    1
    70    42    43    1
    71    32    33    1
    72    86    84    1
    73     2     5    1
    74     2     1    1
    75   117   119    1
    76   117   116    1
    77    84    83    2
    78   118   116    1
    79   115   114    2
    80     5     6    1
    81   116   113    1
    82     8     6    1
    83    83    82    1
    84   113   114    1
    85   113   112    1
    86    82    81    1
    87     6     7    1
    88   109   108    1
    89   109   110    1
    90    81    80    1
    91   102   101    2
    92   108   101   am
    93   101   100    1
    94    76    77    1
    95    80    77    1
    96   106   105   ar
    97   100   103    1
    98   100    99    1
    99   103   104    1
   100   110   111    2
   101   105   104    1
   102   105   107   ar
   103    77    78    1
   104    99    89   am
   105    78    79    2
   106    89    90    2
   107    89    88    1
   108    88    91    1
   109    88    87    1
   110    91    92    1
   111    92    93   ar
   112    92    94   ar
   113    93    95   ar
   114    94    96   ar
   115    95    97   ar
   116    96    97   ar
   117    97    98    1
