@<TRIPOS>MOLECULE
tmp/2vigG01.pdb
 207 197 0 0 0
SMALL
GASTEIGER

@<TRIPOS>ATOM
      1  N         -4.7000    4.5380   88.9600 N.3    89  LEU89      -0.1245
      2  CA        -4.9430    4.5340   87.5020 C.3    89  LEU89       0.1561
      3  C         -3.8940    5.3290   86.7260 C.2    89  LEU89       0.2260
      4  O         -3.6140    5.0080   85.5830 O.2    89  LEU89      -0.2867
      5  CB        -6.3440    5.0840   87.1850 C.3    89  LEU89       0.0270
      6  CG        -7.5290    4.3610   87.7900 C.3    89  LEU89       0.0019
      7  CD1       -8.8700    4.9830   87.2640 C.3    89  LEU89       0.0001
      8  CD2       -7.4110    2.9020   87.4500 C.3    89  LEU89       0.0001
      9  N         -6.6620    8.8960   83.6560 N.3   119  PHE119     -0.1241
     10  CA        -6.5780    7.5930   83.0040 C.3   119  PHE119      0.1605
     11  C         -7.6650    7.5290   81.9360 C.2   119  PHE119      0.2264
     12  O         -8.8360    7.7090   82.2400 O.2   119  PHE119     -0.2867
     13  CB        -6.7840    6.5240   84.0860 C.3   119  PHE119      0.0534
     14  CG        -6.8480    5.0930   83.5860 C.ar  119  PHE119     -0.0203
     15  CD1       -5.6910    4.3170   83.4850 C.ar  119  PHE119     -0.0042
     16  CD2       -8.0690    4.4830   83.3260 C.ar  119  PHE119     -0.0042
     17  CE1       -5.7460    2.9940   83.1050 C.ar  119  PHE119     -0.0003
     18  CE2       -8.1360    3.1410   82.9250 C.ar  119  PHE119     -0.0003
     19  CZ        -6.9910    2.3930   82.8080 C.ar  119  PHE119     -0.0000
     20  N         -9.3640    5.4860   78.9840 N.3   121  LEU121     -0.1231
     21  CA        -9.6200    4.1750   78.3810 C.3   121  LEU121      0.1693
     22  C        -10.9870    4.1720   77.6910 C.2   121  LEU121      0.2592
     23  O        -11.0900    3.8140   76.5240 O.2   121  LEU121     -0.2718
     24  CB        -9.5840    3.0710   79.4630 C.3   121  LEU121      0.0284
     25  CG        -9.8420    1.6330   78.9800 C.3   121  LEU121      0.0019
     26  CD1       -8.9330    1.2450   77.8230 C.3   121  LEU121      0.0001
     27  CD2       -9.7500    0.6190   80.1240 C.3   121  LEU121      0.0001
     28  N        -12.0180    4.5970   78.4190 N.am  122  SER122     -0.1952
     29  CA       -13.3680    4.6430   77.8760 C.3   122  SER122      0.1924
     30  C        -13.5390    5.6750   76.7490 C.2   122  SER122      0.2314
     31  O        -12.7980    6.6660   76.6300 O.2   122  SER122     -0.2863
     32  CB       -14.3760    4.9500   78.9760 C.3   122  SER122      0.2116
     33  OG       -14.2470    4.0720   80.0730 O.3   122  SER122     -0.2180
     34  N        -17.3390    1.5330   76.9040 N.3   127  GLY127     -0.1210
     35  CA       -16.7620    1.4900   78.2390 C.3   127  GLY127      0.1956
     36  C        -16.4620    0.0690   78.7040 C.2   127  GLY127      0.2613
     37  O        -15.3100   -0.2900   78.9000 O.2   127  GLY127     -0.2717
     38  N        -17.5160   -0.7290   78.8900 N.am  128  SER128     -0.1938
     39  CA       -17.4000   -2.1370   79.3030 C.3   128  SER128      0.2055
     40  C        -16.5680   -2.9370   78.3030 C.2   128  SER128      0.2643
     41  O        -15.7230   -3.7700   78.6720 O.2   128  SER128     -0.2714
     42  CB       -18.7880   -2.7700   79.4330 C.3   128  SER128      0.2130
     43  OG       -19.6100   -2.0940   80.3650 O.3   128  SER128     -0.2179
     44  N        -16.7990   -2.6560   77.0290 N.am  129  ASP129     -0.1957
     45  CA       -16.1520   -3.3470   75.9280 C.3   129  ASP129      0.1840
     46  C        -14.8940   -2.5500   75.6210 C.2   129  ASP129      0.2622
     47  O        -14.8290   -1.7850   74.6470 O.2   129  ASP129     -0.2715
     48  CB       -17.1170   -3.4150   74.7340 C.3   129  ASP129      0.1450
     49  CG       -16.5230   -4.1200   73.5270 C.2   129  ASP129      0.3671
     50  OD1      -15.3980   -4.6800   73.6240 O.co2 129  ASP129     -0.2456
     51  OD2      -17.2030   -4.1000   72.4770 O.co2 129  ASP129     -0.2456
     52  N        -13.9170   -2.7170   76.5030 N.am  130  ALA130     -0.1963
     53  CA       -12.7190   -1.8830   76.5360 C.3   130  ALA130      0.1728
     54  C        -11.8230   -2.0700   75.3230 C.2   130  ALA130      0.2616
     55  O        -11.1880   -1.1190   74.8570 O.2   130  ALA130     -0.2715
     56  CB       -11.9350   -2.1470   77.8250 C.3   130  ALA130      0.0334
     57  N        -11.7610   -3.2890   74.8040 N.am  131  GLY131     -0.1955
     58  CA       -10.9180   -3.5740   73.6290 C.3   131  GLY131      0.1869
     59  C        -11.4480   -3.0070   72.3190 C.2   131  GLY131      0.2309
     60  O        -10.7830   -3.1080   71.3000 O.2   131  GLY131     -0.2863
     61  N         -8.6370   -6.6900   70.7700 N.3   171  ASN171     -0.1225
     62  CA        -7.8970   -6.7540   72.0400 C.3   171  ASN171      0.1785
     63  C         -6.3810   -6.7120   71.8670 C.2   171  ASN171      0.2597
     64  O         -5.6780   -6.2650   72.7660 O.2   171  ASN171     -0.2718
     65  CB        -8.2520   -8.0400   72.8170 C.3   171  ASN171      0.1169
     66  CG        -9.6340   -7.9910   73.4570 C.2   171  ASN171      0.2627
     67  OD1      -10.4660   -7.1480   73.1160 O.2   171  ASN171     -0.2716
     68  ND2       -9.8850   -8.9100   74.3900 N.am  171  ASN171     -0.0877
     69  N         -5.8860   -7.1870   70.7230 N.am  172  LYS172     -0.1980
     70  CA        -4.4450   -7.4330   70.5190 C.3   172  LYS172      0.1596
     71  C         -3.6290   -6.2430   69.9510 C.2   172  LYS172      0.2287
     72  O         -2.3990   -6.3150   69.8810 O.2   172  LYS172     -0.2864
     73  CB        -4.2510   -8.6680   69.6240 C.3   172  LYS172      0.0298
     74  CG        -4.9990   -9.8770   70.1200 C.3   172  LYS172      0.0038
     75  CD        -4.2490  -10.5790   71.2070 C.3   172  LYS172      0.0206
     76  CE        -4.9090  -11.8650   71.6840 C.3   172  LYS172      0.1093
     77  NZ        -6.2790  -11.7140   72.1580 N.3   172  LYS172     -0.1314
     78  N         -3.8270   -3.3820   76.1120 N.3   225  PHE225     -0.1227
     79  CA        -5.0130   -4.0260   76.6760 C.3   225  PHE225      0.1736
     80  C         -4.6900   -4.6330   78.0510 C.2   225  PHE225      0.2595
     81  O         -5.4160   -4.4180   79.0250 O.2   225  PHE225     -0.2718
     82  CB        -5.5950   -5.0840   75.7600 C.3   225  PHE225      0.0547
     83  CG        -6.9020   -5.5960   76.2440 C.ar  225  PHE225     -0.0202
     84  CD1       -8.0430   -4.8250   76.1010 C.ar  225  PHE225     -0.0042
     85  CD2       -6.9940   -6.8210   76.8990 C.ar  225  PHE225     -0.0042
     86  CE1       -9.2670   -5.2750   76.5770 C.ar  225  PHE225     -0.0003
     87  CE2       -8.2200   -7.2750   77.3870 C.ar  225  PHE225     -0.0003
     88  CZ        -9.3510   -6.4980   77.2220 C.ar  225  PHE225     -0.0000
     89  N         -3.5770   -5.3470   78.1160 N.am  226  LYS226     -0.1980
     90  CA        -3.1050   -5.9650   79.3440 C.3   226  LYS226      0.1596
     91  C         -2.6780   -4.9470   80.4050 C.2   226  LYS226      0.2287
     92  O         -2.9520   -5.1360   81.5930 O.2   226  LYS226     -0.2864
     93  CB        -1.9600   -6.9280   79.0270 C.3   226  LYS226      0.0298
     94  CG        -2.3940   -8.1450   78.2290 C.3   226  LYS226      0.0038
     95  CD        -3.0210   -9.1950   79.1440 C.3   226  LYS226      0.0206
     96  CE        -3.7860  -10.2750   78.3840 C.3   226  LYS226      0.1093
     97  NZ        -5.1420   -9.8030   77.9450 N.3   226  LYS226     -0.1314
     98  N         -5.9270   -3.6350   81.8890 N.3   229  MET229     -0.1230
     99  CA        -6.6230   -4.6300   82.6960 C.3   229  MET229      0.1702
    100  C         -5.9410   -4.7720   84.0440 C.2   229  MET229      0.2592
    101  O         -6.6050   -4.8270   85.0700 O.2   229  MET229     -0.2718
    102  CB        -6.6890   -5.9820   81.9790 C.3   229  MET229      0.0401
    103  CG        -7.5320   -5.9890   80.7080 C.3   229  MET229      0.0596
    104  SD        -9.2950   -5.6640   80.9460 S.3   229  MET229     -0.1393
    105  CE        -9.4680   -3.9500   80.4150 C.3   229  MET229      0.0692
    106  N         -4.6120   -4.7930   84.0520 N.am  230  GLN230     -0.1979
    107  CA        -3.8740   -4.8420   85.3070 C.3   230  GLN230      0.1601
    108  C         -3.9490   -3.5600   86.1280 C.2   230  GLN230      0.2287
    109  O         -3.8550   -3.6000   87.3550 O.2   230  GLN230     -0.2864
    110  CB        -2.4090   -5.2360   85.0510 C.3   230  GLN230      0.0394
    111  CG        -2.2750   -6.6600   84.5080 C.3   230  GLN230      0.0908
    112  CD        -0.8570   -6.9660   84.0390 C.2   230  GLN230      0.2608
    113  OE1        0.1000   -6.7130   84.7510 O.2   230  GLN230     -0.2717
    114  NE2       -0.7260   -7.4830   82.8230 N.am  230  GLN230     -0.0878
    115  N         -6.6520   -1.6380   86.1940 N.3   232  LEU232     -0.1231
    116  CA        -7.9920   -1.6680   86.7260 C.3   232  LEU232      0.1693
    117  C         -8.1450   -2.6450   87.8900 C.2   232  LEU232      0.2592
    118  O         -8.9390   -2.3920   88.7920 O.2   232  LEU232     -0.2718
    119  CB        -8.9830   -2.0030   85.6140 C.3   232  LEU232      0.0284
    120  CG        -9.2700   -0.8730   84.6260 C.3   232  LEU232      0.0019
    121  CD1       -9.9570   -1.4660   83.3740 C.3   232  LEU232      0.0001
    122  CD2      -10.0990    0.2470   85.2770 C.3   232  LEU232      0.0001
    123  N         -7.4230   -3.7560   87.8500 N.am  233  ASP233     -0.1974
    124  CA        -7.3440   -4.6910   88.9800 C.3   233  ASP233      0.1709
    125  C         -6.9580   -3.9380   90.2500 C.2   233  ASP233      0.2293
    126  O         -7.6400   -4.0270   91.2790 O.2   233  ASP233     -0.2864
    127  CB        -6.3160   -5.8060   88.7260 C.3   233  ASP233      0.1436
    128  CG        -6.7360   -6.7760   87.6330 C.2   233  ASP233      0.3671
    129  OD1       -7.9610   -7.0060   87.4850 O.co2 233  ASP233     -0.2456
    130  OD2       -5.8390   -7.3050   86.9250 O.co2 233  ASP233     -0.2456
    131  N         -9.6050   -1.1820   91.1330 N.3   236  ARG236     -0.1245
    132  CA       -10.7480   -1.8030   91.7660 C.3   236  ARG236      0.1563
    133  C        -10.6280   -1.9030   93.2990 C.2   236  ARG236      0.2260
    134  O        -11.6310   -1.7850   94.0020 O.2   236  ARG236     -0.2867
    135  CB       -10.9990   -3.1710   91.1240 C.3   236  ARG236      0.0307
    136  CG       -11.7270   -3.0500   89.7970 C.3   236  ARG236      0.0489
    137  CD       -11.5520   -4.2330   88.8840 C.3   236  ARG236      0.2205
    138  NE       -12.1140   -3.9120   87.5730 N.pl3 236  ARG236     -0.0865
    139  CZ       -12.1930   -4.7590   86.5520 C.cat 236  ARG236      0.5346
    140  NH1      -11.7160   -5.9860   86.6560 N.pl3 236  ARG236      0.1354
    141  NH2      -12.7470   -4.3600   85.4170 N.pl3 236  ARG236      0.1354
    142  N         -6.9740  -10.8270   90.7190 N.3   306  ILE306     -0.1245
    143  CA        -7.9950  -10.3110   89.7640 C.3   306  ILE306      0.1561
    144  C         -9.3850  -10.6090   90.2740 C.2   306  ILE306      0.2260
    145  O        -10.2300   -9.7070   90.4310 O.2   306  ILE306     -0.2867
    146  CB        -7.8540  -10.9320   88.3350 C.3   306  ILE306      0.0252
    147  CG1       -6.4700  -10.6140   87.7530 C.3   306  ILE306      0.0019
    148  CG2       -8.9540  -10.3890   87.3580 C.3   306  ILE306      0.0019
    149  CD1       -6.1740  -11.3270   86.4840 C.3   306  ILE306      0.0001
    150  N        -18.4480    2.7690   87.5250 N.3   355  TYR355     -0.1227
    151  CA       -17.0820    2.9710   87.0360 C.3   355  TYR355      0.1736
    152  C        -16.0800    1.9020   87.5210 C.2   355  TYR355      0.2595
    153  O        -16.3480    1.1530   88.4630 O.2   355  TYR355     -0.2718
    154  CB       -16.5850    4.4330   87.1920 C.3   355  TYR355      0.0548
    155  CG       -16.3570    5.0410   88.5910 C.ar  355  TYR355     -0.0200
    156  CD1      -16.0330    6.3910   88.6990 C.ar  355  TYR355     -0.0009
    157  CD2      -16.4470    4.2980   89.7690 C.ar  355  TYR355     -0.0009
    158  CE1      -15.8150    6.9870   89.9110 C.ar  355  TYR355      0.0417
    159  CE2      -16.2270    4.9020   91.0210 C.ar  355  TYR355      0.0417
    160  CZ       -15.9080    6.2460   91.0700 C.ar  355  TYR355      0.1957
    161  OH       -15.6950    6.8840   92.2630 O.3   355  TYR355     -0.2866
    162  N        -14.9610    1.8340   86.8110 N.am  356  GLU356     -0.1965
    163  CA       -13.9680    0.7740   86.9230 C.3   356  GLU356      0.1733
    164  C        -14.5030   -0.6500   86.7220 C.2   356  GLU356      0.2616
    165  O        -14.0170   -1.6060   87.3250 O.2   356  GLU356     -0.2715
    166  CB       -13.1690    0.9270   88.2100 C.3   356  GLU356      0.0429
    167  CG       -12.5080    2.3290   88.2720 C.3   356  GLU356      0.1163
    168  CD       -11.1670    2.3390   88.9730 C.2   356  GLU356      0.3649
    169  OE1      -10.5360    1.2730   89.0540 O.co2 356  GLU356     -0.2457
    170  OE2      -10.7480    3.4260   89.4300 O.co2 356  GLU356     -0.2457
    171  N        -15.4490   -0.7890   85.7940 N.am  357  GLY357     -0.1955
    172  CA       -16.0540   -2.0780   85.5280 C.3   357  GLY357      0.1869
    173  C        -17.3490   -2.1230   86.2880 C.2   357  GLY357      0.2309
    174  O        -17.3660   -2.0820   87.5150 O.2   357  GLY357     -0.2863
    175  N        -19.9400   -6.5110   84.6780 N.3   361  ILE361     -0.1245
    176  CA       -18.5970   -6.8640   84.2890 C.3   361  ILE361      0.1561
    177  C        -17.8420   -7.6080   85.4040 C.2   361  ILE361      0.2260
    178  O        -17.1380   -8.5650   85.1000 O.2   361  ILE361     -0.2867
    179  CB       -17.8200   -5.6180   83.8170 C.3   361  ILE361      0.0252
    180  CG1      -18.3610   -5.1310   82.4600 C.3   361  ILE361      0.0019
    181  CG2      -16.2770   -5.8950   83.8020 C.3   361  ILE361      0.0019
    182  CD1      -18.3710   -6.1400   81.3690 C.3   361  ILE361      0.0001
    183  N        -18.7960  -11.2350   85.4920 N.3   364  LEU364     -0.1231
    184  CA       -18.1590  -11.9500   84.3790 C.3   364  LEU364      0.1693
    185  C        -16.7080  -12.2900   84.6540 C.2   364  LEU364      0.2591
    186  O        -16.2410  -13.4080   84.3550 O.2   364  LEU364     -0.2718
    187  CB       -18.2450  -11.1300   83.0830 C.3   364  LEU364      0.0284
    188  CG       -19.5940  -11.0940   82.3670 C.3   364  LEU364      0.0019
    189  CD1      -19.5260  -10.1880   81.1470 C.3   364  LEU364      0.0001
    190  CD2      -19.9920  -12.4910   81.9670 C.3   364  LEU364      0.0001
    191  N        -15.9880  -11.3270   85.2300 N.am  365  VAL365     -0.1980
    192  CA       -14.5730  -11.5490   85.6090 C.3   365  VAL365      0.1595
    193  C        -14.4750  -12.6390   86.6880 C.2   365  VAL365      0.2287
    194  O        -13.6460  -13.5320   86.5720 O.2   365  VAL365     -0.2864
    195  CB       -13.8780  -10.2380   86.0640 C.3   365  VAL365      0.0276
    196  CG1      -12.5220  -10.5190   86.7760 C.3   365  VAL365      0.0022
    197  CG2      -13.6690   -9.3070   84.8630 C.3   365  VAL365      0.0022
    198  N        -12.7230  -16.6380   86.3170 N.3   369  HIS369     -0.1241
    199  CA       -11.7090  -17.1490   87.2210 C.3   369  HIS369      0.1621
    200  C        -12.2170  -18.3240   88.0270 C.2   369  HIS369      0.2264
    201  O        -11.4800  -19.2690   88.2450 O.2   369  HIS369     -0.2867
    202  CB       -11.1650  -16.0290   88.1140 C.3   369  HIS369      0.0745
    203  CG       -10.2100  -15.1470   87.3890 C.ar  369  HIS369      0.0817
    204  ND1      -10.6110  -14.0100   86.7200 N.ar  369  HIS369     -0.2268
    205  CD2       -8.8890  -15.2880   87.1370 C.ar  369  HIS369      0.1154
    206  CE1       -9.5640  -13.4620   86.1260 C.ar  369  HIS369      0.1986
    207  NE2       -8.5090  -14.2200   86.3600 N.ar  369  HIS369     -0.2212
@<TRIPOS>BOND
     1    73    74    1
     2    73    70    1
     3    72    71    2
     4    71    70    1
     5    74    75    1
     6    70    69    1
     7    69    63   am
     8    61    62    1
     9    75    76    1
    10    60    59    2
    11    76    77    1
    12    63    62    1
    13    63    64    2
    14    62    65    1
    15    59    58    1
    16    51    49   ar
    17    65    66    1
    18    67    66    2
    19    66    68   am
    20    49    50   ar
    21    49    48    1
    22    58    57    1
    23    47    46    2
    24    48    45    1
    25    57    54   am
    26    55    54    2
    27    54    53    1
    28    46    45    1
    29    46    52   am
    30    82    83    1
    31    82    79    1
    32    45    44    1
    33    84    83   ar
    34    84    86   ar
    35    78    79    1
    36    83    85   ar
    37    52    53    1
    38    23    22    2
    39    53    56    1
    40    86    88   ar
    41    31    30    2
    42    79    80    1
    43    30    29    1
    44    85    87   ar
    45    34    35    1
    46    44    40   am
    47    88    87   ar
    48    22    21    1
    49    22    28   am
    50    26    25    1
    51    29    28    1
    52    29    32    1
    53    97    96    1
    54    80    89   am
    55    80    81    2
    56    89    90    1
    57    94    93    1
    58    94    95    1
    59    35    36    1
    60    40    41    2
    61    40    39    1
    62    21    20    1
    63    21    24    1
    64    96    95    1
    65    36    38   am
    66    36    37    2
    67    38    39    1
    68    32    33    1
    69    25    24    1
    70    25    27    1
    71    93    90    1
    72    39    42    1
    73    90    91    1
    74    42    43    1
    75    91    92    2
    76   105   104    1
    77   103   104    1
    78   103   102    1
    79   189   188    1
    80   182   180    1
    81    98    99    1
    82    11    12    2
    83    11    10    1
    84   190   188    1
    85   102    99    1
    86   188   187    1
    87   180   179    1
    88    99   100    1
    89    19    18   ar
    90    19    17   ar
    91   114   112   am
    92    18    16   ar
    93    10     9    1
    94    10    13    1
    95   187   184    1
    96    17    15   ar
    97    16    14   ar
    98   121   120    1
    99    15    14   ar
   100    14    13    1
   101   181   179    1
   102   179   176    1
   103   112   111    1
   104   112   113    2
   105   100   106   am
   106   100   101    2
   107   106   107    1
   108   176   175    1
   109   176   177    1
   110   186   185    2
   111   184   185    1
   112   184   183    1
   113   111   110    1
   114   120   122    1
   115   120   119    1
   116   185   191   am
   117   197   195    1
   118   110   107    1
   119   178   177    2
   120   191   192    1
   121   107   108    1
   122   141   139    1
   123   172   171    1
   124   172   173    1
   125     4     3    2
   126   192   195    1
   127   192   193    1
   128   119   116    1
   129   171   164   am
   130   195   196    1
   131   206   207   ar
   132   206   204   ar
   133   108   109    2
   134   115   116    1
   135   173   174    2
   136   198   199    1
   137   207   205   ar
   138   149   147    1
   139   139   140    1
   140   139   138    2
   141   194   193    2
   142   204   203   ar
   143   164   163    1
   144   164   165    2
   145   116   117    1
   146     3     2    1
   147   162   163    1
   148   162   152   am
   149   163   166    1
   150   130   128   ar
   151   151   154    1
   152   151   152    1
   153   151   150    1
   154   205   203   ar
   155     5     2    1
   156     5     6    1
   157   154   155    1
   158   199   200    1
   159   199   202    1
   160     7     6    1
   161   148   146    1
   162   203   202    1
   163     8     6    1
   164   129   128   ar
   165     2     1    1
   166   152   153    2
   167   138   137    1
   168   128   127    1
   169   147   146    1
   170   123   117   am
   171   123   124    1
   172   117   118    2
   173   200   201    2
   174   166   167    1
   175   167   168    1
   176   146   143    1
   177   155   156   ar
   178   155   157   ar
   179   156   158   ar
   180   127   124    1
   181   137   136    1
   182   168   169   ar
   183   168   170   ar
   184   124   125    1
   185   143   144    1
   186   143   142    1
   187   157   159   ar
   188   136   135    1
   189   158   160   ar
   190   125   126    2
   191   144   145    2
   192   159   160   ar
   193   160   161    1
   194   135   132    1
   195   131   132    1
   196   132   133    1
   197   133   134    2
