@<TRIPOS>MOLECULE
tmp/2viiA00.pdb
 154 149 0 0 0
SMALL
GASTEIGER

@<TRIPOS>ATOM
      1  N         41.9800   11.3330    4.1400 N.3     1  ASN1       -0.1225
      2  CA        43.2710   11.9280    3.6760 C.3     1  ASN1        0.1785
      3  C         43.2040   12.2350    2.1780 C.2     1  ASN1        0.2597
      4  O         42.8220   11.3770    1.3780 O.2     1  ASN1       -0.2718
      5  CB        44.4290   10.9650    3.9690 C.3     1  ASN1        0.1169
      6  CG        45.7830   11.5070    3.5590 C.2     1  ASN1        0.2627
      7  OD1       45.9150   12.6470    3.1040 O.2     1  ASN1       -0.2716
      8  ND2       46.7940   10.6590    3.6970 N.am    1  ASN1       -0.0877
      9  N         43.5830   13.4550    1.8020 N.am    2  LEU2       -0.1966
     10  CA        43.5420   13.8750    0.4020 C.3     2  LEU2        0.1728
     11  C         44.8460   13.6600   -0.3560 C.2     2  LEU2        0.2616
     12  O         45.8560   14.3030   -0.0690 O.2     2  LEU2       -0.2715
     13  CB        43.1440   15.3490    0.3130 C.3     2  LEU2        0.0311
     14  CG        41.7170   15.6750    0.7620 C.3     2  LEU2        0.0022
     15  CD1       41.5450   17.1790    0.8710 C.3     2  LEU2        0.0001
     16  CD2       40.7220   15.0870   -0.2240 C.3     2  LEU2        0.0001
     17  N         44.8070   12.7560   -1.3320 N.am    3  LEU3       -0.1977
     18  CA        45.9720   12.4470   -2.1560 C.3     3  LEU3        0.1596
     19  C         45.7580   12.9190   -3.5870 C.2     3  LEU3        0.2287
     20  O         44.6250   13.1570   -4.0130 O.2     3  LEU3       -0.2864
     21  CB        46.2330   10.9380   -2.1710 C.3     3  LEU3        0.0297
     22  CG        46.8940   10.2660   -0.9670 C.3     3  LEU3        0.0022
     23  CD1       46.6930    8.7680   -1.0580 C.3     3  LEU3        0.0001
     24  CD2       48.3730   10.6100   -0.9290 C.3     3  LEU3        0.0001
     25  N         42.8300   18.1320  -10.2380 N.3     9  PHE9       -0.1241
     26  CA        42.5100   17.9250   -8.8350 C.3     9  PHE9        0.1605
     27  C         42.9200   19.1140   -7.9810 C.2     9  PHE9        0.2264
     28  O         42.2210   19.4650   -7.0310 O.2     9  PHE9       -0.2867
     29  CB        43.1850   16.6610   -8.3020 C.3     9  PHE9        0.0534
     30  CG        42.9020   16.3900   -6.8390 C.ar    9  PHE9       -0.0203
     31  CD1       41.6140   16.0550   -6.4140 C.ar    9  PHE9       -0.0042
     32  CD2       43.9220   16.4890   -5.8870 C.ar    9  PHE9       -0.0042
     33  CE1       41.3400   15.8220   -5.0590 C.ar    9  PHE9       -0.0003
     34  CE2       43.6650   16.2590   -4.5330 C.ar    9  PHE9       -0.0003
     35  CZ        42.3660   15.9240   -4.1170 C.ar    9  PHE9       -0.0000
     36  N         31.1400    8.0030   -8.7730 N.3    32  ARG32      -0.1231
     37  CA        31.2470    7.4370   -7.4400 C.3    32  ARG32       0.1694
     38  C         32.7080    7.1050   -7.1170 C.2    32  ARG32       0.2593
     39  O         33.5040    6.7360   -7.9920 O.2    32  ARG32      -0.2718
     40  CB        30.4140    6.1700   -7.3240 C.3    32  ARG32       0.0321
     41  CG        30.9260    5.0110   -8.1480 C.3    32  ARG32       0.0489
     42  CD        30.3410    3.7030   -7.6260 C.3    32  ARG32       0.2205
     43  NE        30.8070    2.5350   -8.3740 N.pl3  32  ARG32      -0.0865
     44  CZ        30.6010    2.3570   -9.6740 C.cat  32  ARG32       0.5346
     45  NH1       29.9430    3.2700  -10.3750 N.pl3  32  ARG32       0.1354
     46  NH2       31.0380    1.2590  -10.2700 N.pl3  32  ARG32       0.1354
     47  N         33.0500    7.2390   -5.8450 N.am   33  GLY33      -0.1942
     48  CA        34.4010    6.9620   -5.4110 C.3    33  GLY33       0.2014
     49  C         35.3550    8.0900   -5.7260 C.2    33  GLY33       0.2640
     50  O         36.5580    7.9350   -5.5200 O.2    33  GLY33      -0.2714
     51  N         34.8410    9.2250   -6.2040 N.am   34  THR34      -0.1936
     52  CA        35.7130   10.3550   -6.5370 C.3    34  THR34       0.2028
     53  C         35.9910   11.3310   -5.3970 C.2    34  THR34       0.2643
     54  O         36.6970   12.3190   -5.5930 O.2    34  THR34      -0.2714
     55  CB        35.1720   11.1840   -7.7270 C.3    34  THR34       0.1808
     56  OG1       33.8780   11.6970   -7.3990 O.3    34  THR34      -0.2208
     57  CG2       35.0740   10.3390   -8.9800 C.3    34  THR34       0.0379
     58  N         35.4450   11.0720   -4.2150 N.am   35  GLY35      -0.1939
     59  CA        35.6820   11.9650   -3.0880 C.3    35  GLY35       0.2014
     60  C         34.6650   13.0660   -2.8000 C.2    35  GLY35       0.2639
     61  O         34.9630   13.9920   -2.0570 O.2    35  GLY35      -0.2714
     62  N         33.4710   12.9760   -3.3720 N.am   36  LYS36      -0.1963
     63  CA        32.4430   13.9780   -3.1420 C.3    36  LYS36       0.1728
     64  C         32.2340   14.2980   -1.6630 C.2    36  LYS36       0.2616
     65  O         32.3130   15.4600   -1.2630 O.2    36  LYS36      -0.2715
     66  CB        31.1130   13.5340   -3.7570 C.3    36  LYS36       0.0311
     67  CG        30.8550   14.0620   -5.1670 C.3    36  LYS36       0.0038
     68  CD        30.6720   12.9510   -6.1820 C.3    36  LYS36       0.0206
     69  CE        29.5940   11.9650   -5.7530 C.3    36  LYS36       0.1093
     70  NZ        29.5720   10.7640   -6.6480 N.3    36  LYS36      -0.1314
     71  N         31.9700   13.2860   -0.8430 N.am   37  GLU37      -0.1963
     72  CA        31.7480   13.5540    0.5790 C.3    37  GLU37       0.1733
     73  C         32.9760   14.2100    1.2080 C.2    37  GLU37       0.2616
     74  O         32.8540   15.0890    2.0620 O.2    37  GLU37      -0.2715
     75  CB        31.4000   12.2730    1.3420 C.3    37  GLU37       0.0429
     76  CG        30.8240   12.5510    2.7240 C.3    37  GLU37       0.1163
     77  CD        30.2570   11.3070    3.4120 C.2    37  GLU37       0.3649
     78  OE1       29.5560   11.4660    4.4430 O.co2  37  GLU37      -0.2457
     79  OE2       30.5090   10.1730    2.9350 O.co2  37  GLU37      -0.2457
     80  N         34.1620   13.7870    0.7890 N.am   38  LEU38      -0.1977
     81  CA        35.3710   14.3790    1.3300 C.3    38  LEU38       0.1596
     82  C         35.3910   15.8550    1.0050 C.2    38  LEU38       0.2287
     83  O         35.5800   16.6970    1.8920 O.2    38  LEU38      -0.2864
     84  CB        36.6030   13.7180    0.7350 C.3    38  LEU38       0.0297
     85  CG        36.9220   12.3460    1.3130 C.3    38  LEU38       0.0022
     86  CD1       38.2070   11.8370    0.6790 C.3    38  LEU38       0.0001
     87  CD2       37.0630   12.4470    2.8370 C.3    38  LEU38       0.0001
     88  N         23.7190   13.6670   -0.8290 N.3    95  ASP95      -0.1239
     89  CA        24.3200   12.8740   -1.8910 C.3    95  ASP95       0.1674
     90  C         23.2420   12.2310   -2.7690 C.2    95  ASP95       0.2266
     91  O         22.1110   12.0330   -2.3250 O.2    95  ASP95      -0.2867
     92  CB        25.2250   11.8040   -1.2830 C.3    95  ASP95       0.1410
     93  CG        26.1560   11.1820   -2.3020 C.2    95  ASP95       0.3668
     94  OD1       26.8810   10.2320   -1.9290 O.co2  95  ASP95      -0.2456
     95  OD2       26.1710   11.6370   -3.4680 O.co2  95  ASP95      -0.2456
     96  N         48.5290    6.9650   -5.8950 N.3   177  MET177     -0.1245
     97  CA        47.6410    6.4460   -4.8650 C.3   177  MET177      0.1570
     98  C         47.7910    4.9400   -4.7110 C.2   177  MET177      0.2261
     99  O         47.6970    4.4090   -3.5970 O.2   177  MET177     -0.2867
    100  CB        46.1860    6.8120   -5.1840 C.3   177  MET177      0.0387
    101  CG        45.9810    8.3110   -5.3670 C.3   177  MET177      0.0595
    102  SD        44.2980    8.8350   -5.7730 S.3   177  MET177     -0.1393
    103  CE        43.7920    9.5440   -4.1900 C.3   177  MET177      0.0692
    104  N         50.6330    4.3650   -2.4440 N.3   180  TYR180     -0.1227
    105  CA        50.2100    4.6800   -1.0860 C.3   180  TYR180      0.1736
    106  C         49.3480    3.5700   -0.4790 C.2   180  TYR180      0.2595
    107  O         49.5480    3.1570    0.6760 O.2   180  TYR180     -0.2718
    108  CB        49.4170    5.9930   -1.0850 C.3   180  TYR180      0.0548
    109  CG        48.8990    6.3860    0.2840 C.ar  180  TYR180     -0.0200
    110  CD1       49.6940    7.1150    1.1720 C.ar  180  TYR180     -0.0009
    111  CD2       47.6330    5.9740    0.7150 C.ar  180  TYR180     -0.0009
    112  CE1       49.2500    7.4190    2.4550 C.ar  180  TYR180      0.0417
    113  CE2       47.1780    6.2700    1.9990 C.ar  180  TYR180      0.0417
    114  CZ        47.9940    6.9890    2.8630 C.ar  180  TYR180      0.1957
    115  OH        47.5640    7.2510    4.1440 O.3   180  TYR180     -0.2866
    116  N         48.3770    3.1070   -1.2660 N.am  181  PHE181     -0.1976
    117  CA        47.4650    2.0560   -0.8260 C.3   181  PHE181      0.1639
    118  C         48.2070    0.7550   -0.6130 C.2   181  PHE181      0.2290
    119  O         48.0180    0.0830    0.4030 O.2   181  PHE181     -0.2864
    120  CB        46.3440    1.8730   -1.8520 C.3   181  PHE181      0.0560
    121  CG        45.3790    3.0250   -1.9000 C.ar  181  PHE181     -0.0200
    122  CD1       44.7410    3.3730   -3.0900 C.ar  181  PHE181     -0.0042
    123  CD2       45.1050    3.7700   -0.7520 C.ar  181  PHE181     -0.0042
    124  CE1       43.8420    4.4550   -3.1320 C.ar  181  PHE181     -0.0003
    125  CE2       44.2110    4.8480   -0.7870 C.ar  181  PHE181     -0.0003
    126  CZ        43.5810    5.1900   -1.9730 C.ar  181  PHE181     -0.0000
    127  N         38.6050    6.0240   -6.9260 N.3   214  ILE214     -0.1231
    128  CA        39.4490    5.8700   -5.7470 C.3   214  ILE214      0.1692
    129  C         39.0410    4.7660   -4.7860 C.2   214  ILE214      0.2591
    130  O         39.9020    4.0750   -4.2470 O.2   214  ILE214     -0.2718
    131  CB        39.5670    7.1910   -4.9760 C.3   214  ILE214      0.0266
    132  CG1       39.9730    8.3020   -5.9520 C.3   214  ILE214      0.0019
    133  CG2       40.6300    7.0620   -3.8780 C.3   214  ILE214      0.0020
    134  CD1       40.2930    9.6340   -5.3070 C.3   214  ILE214      0.0001
    135  N         37.7430    4.5910   -4.5590 N.am  215  ARG215     -0.1980
    136  CA        37.3010    3.5260   -3.6680 C.3   215  ARG215      0.1597
    137  C         37.6700    2.1680   -4.2720 C.2   215  ARG215      0.2287
    138  O         38.0960    1.2490   -3.5590 O.2   215  ARG215     -0.2864
    139  CB        35.7860    3.5820   -3.4490 C.3   215  ARG215      0.0334
    140  CG        35.2280    2.3270   -2.7520 C.3   215  ARG215      0.0492
    141  CD        33.7160    2.3480   -2.5800 C.3   215  ARG215      0.2205
    142  NE        33.2860    3.3610   -1.6160 N.pl3 215  ARG215     -0.0865
    143  CZ        32.8100    4.5590   -1.9460 C.cat 215  ARG215      0.5346
    144  NH1       32.6950    4.9070   -3.2220 N.pl3 215  ARG215      0.1354
    145  NH2       32.4450    5.4130   -0.9980 N.pl3 215  ARG215      0.1354
    146  N         41.5210    1.4990   -4.4040 N.3   218  LYS218     -0.1245
    147  CA        41.9670    1.0660   -3.0930 C.3   218  LYS218      0.1561
    148  C         41.7090   -0.4150   -2.8770 C.2   218  LYS218      0.2260
    149  O         42.6130   -1.1780   -2.5200 O.2   218  LYS218     -0.2867
    150  CB        41.2610    1.8620   -1.9930 C.3   218  LYS218      0.0271
    151  CG        41.7420    1.5290   -0.5810 C.3   218  LYS218      0.0035
    152  CD        41.1940    2.5110    0.4310 C.3   218  LYS218      0.0206
    153  CE        41.8890    2.3740    1.7780 C.3   218  LYS218      0.1093
    154  NZ        41.6360    1.0500    2.4270 N.3   218  LYS218     -0.1314
@<TRIPOS>BOND
     1    45    44    1
     2    46    44    1
     3    25    26    1
     4    44    43    2
     5    57    55    1
     6    26    29    1
     7    26    27    1
     8    36    37    1
     9    43    42    1
    10    29    30    1
    11    41    42    1
    12    41    40    1
    13    39    38    2
    14    27    28    2
    15    55    56    1
    16    55    52    1
    17    37    40    1
    18    37    38    1
    19    38    47   am
    20   127   128    1
    21    30    31   ar
    22    30    32   ar
    23    70    69    1
    24    52    51    1
    25    52    53    1
    26    31    33   ar
    27    51    49   am
    28    68    69    1
    29    68    67    1
    30   132   134    1
    31   132   131    1
    32    96    97    1
    33    32    34   ar
    34    47    48    1
    35   102   101    1
    36   102   103    1
    37   128   131    1
    38   128   129    1
    39    49    50    2
    40    49    48    1
    41    54    53    2
    42    53    58   am
    43   101   100    1
    44   100    97    1
    45    67    66    1
    46    33    35   ar
    47   131   133    1
    48    97    98    1
    49   129   135   am
    50   129   130    2
    51    98    99    2
    52   135   136    1
    53    34    35   ar
    54   146   147    1
    55   137   136    1
    56   137   138    2
    57    58    59    1
    58    20    19    2
    59    66    63    1
    60   136   139    1
    61    19    18    1
    62    95    93   ar
    63   139   140    1
    64    62    63    1
    65    62    60   am
    66   144   143    1
    67    63    64    1
    68   124   122   ar
    69   124   126   ar
    70   147   148    1
    71   147   150    1
    72   122   121   ar
    73    59    60    1
    74   148   149    2
    75    60    61    2
    76    90    91    2
    77    90    89    1
    78   140   141    1
    79   141   142    1
    80   104   105    1
    81    93    94   ar
    82    93    92    1
    83    21    18    1
    84    21    22    1
    85    18    17    1
    86   150   151    1
    87   126   125   ar
    88   143   142    2
    89   143   145    1
    90   121   120    1
    91   121   123   ar
    92    89    92    1
    93    89    88    1
    94   120   117    1
    95    64    65    2
    96    64    71   am
    97    17    11   am
    98   116   117    1
    99   116   106   am
   100   105   108    1
   101   105   106    1
   102   108   109    1
   103    23    22    1
   104    22    24    1
   105    71    72    1
   106   117   118    1
   107   125   123   ar
   108   118   119    2
   109   151   152    1
   110   106   107    2
   111    11    12    2
   112    11    10    1
   113    16    14    1
   114   109   111   ar
   115   109   110   ar
   116    13    10    1
   117    13    14    1
   118    10     9    1
   119   152   153    1
   120    72    73    1
   121    72    75    1
   122    86    85    1
   123   111   113   ar
   124    84    85    1
   125    84    81    1
   126    14    15    1
   127    80    73   am
   128    80    81    1
   129    82    81    1
   130    82    83    2
   131   110   112   ar
   132    73    74    2
   133    85    87    1
   134    75    76    1
   135     4     3    2
   136   153   154    1
   137     9     3   am
   138   113   114   ar
   139     3     2    1
   140   112   114   ar
   141    76    77    1
   142   114   115    1
   143    79    77   ar
   144     7     6    2
   145    77    78   ar
   146     6     8   am
   147     6     5    1
   148     2     5    1
   149     2     1    1
