@<TRIPOS>MOLECULE
tmp/2vijA01.pdb
 111 102 0 0 0
SMALL
GASTEIGER

@<TRIPOS>ATOM
      1  N         21.9160    5.2110   57.3650 N.3   195  GLU195     -0.1245
      2  CA        21.9580    4.3690   58.5560 C.3   195  GLU195      0.1567
      3  C         22.3950    2.9640   58.1770 C.2   195  GLU195      0.2260
      4  O         22.0330    2.4500   57.1210 O.2   195  GLU195     -0.2867
      5  CB        20.5830    4.2890   59.2250 C.3   195  GLU195      0.0388
      6  CG        20.0770    5.5950   59.8050 C.3   195  GLU195      0.1160
      7  CD        18.6410    5.4960   60.2980 C.2   195  GLU195      0.3649
      8  OE1       17.9900    4.4570   60.0480 O.co2 195  GLU195     -0.2457
      9  OE2       18.1630    6.4600   60.9360 O.co2 195  GLU195     -0.2457
     10  N         22.4770   -0.8660   60.1000 N.3   197  ASN197     -0.1225
     11  CA        22.0550   -1.5910   61.2910 C.3   197  ASN197      0.1785
     12  C         21.2880   -0.6450   62.2130 C.2   197  ASN197      0.2597
     13  O         21.3420   -0.7740   63.4360 O.2   197  ASN197     -0.2718
     14  CB        23.2750   -2.1560   62.0250 C.3   197  ASN197      0.1169
     15  CG        22.9240   -3.3200   62.9320 C.2   197  ASN197      0.2627
     16  OD1       21.9700   -4.0560   62.6740 O.2   197  ASN197     -0.2716
     17  ND2       23.7000   -3.4960   63.9980 N.am  197  ASN197     -0.0877
     18  N         20.5840    0.3130   61.6150 N.am  198  GLY198     -0.1957
     19  CA        19.7460    1.2160   62.3850 C.3   198  GLY198      0.1869
     20  C         20.5060    2.3530   63.0400 C.2   198  GLY198      0.2309
     21  O         19.9210    3.1770   63.7400 O.2   198  GLY198     -0.2863
     22  N         21.5010  -13.2050   58.3320 N.3   266  ASN266     -0.1225
     23  CA        21.0710  -12.4310   59.4910 C.3   266  ASN266      0.1785
     24  C         22.1900  -11.6410   60.1750 C.2   266  ASN266      0.2597
     25  O         21.9180  -10.6520   60.8530 O.2   266  ASN266     -0.2718
     26  CB        20.3880  -13.3420   60.5170 C.3   266  ASN266      0.1169
     27  CG        19.0240  -13.8290   60.0560 C.2   266  ASN266      0.2627
     28  OD1       18.3700  -14.6160   60.7450 O.2   266  ASN266     -0.2716
     29  ND2       18.5860  -13.3670   58.8930 N.am  266  ASN266     -0.0877
     30  N         23.4430  -12.0580   60.0120 N.am  267  ILE267     -0.1980
     31  CA        24.5300  -11.3560   60.6910 C.3   267  ILE267      0.1595
     32  C         24.9540  -10.0980   59.9390 C.2   267  ILE267      0.2287
     33  O         25.7190   -9.2880   60.4590 O.2   267  ILE267     -0.2864
     34  CB        25.7800  -12.2470   60.8810 C.3   267  ILE267      0.0276
     35  CG1       26.4970  -12.4520   59.5480 C.3   267  ILE267      0.0022
     36  CG2       25.3740  -13.5830   61.4800 C.3   267  ILE267      0.0022
     37  CD1       27.8340  -13.1560   59.6830 C.3   267  ILE267      0.0001
     38  N         21.0390   -4.3120   57.5750 N.3   270  VAL270     -0.1245
     39  CA        20.3520   -3.5810   56.5250 C.3   270  VAL270      0.1561
     40  C         20.9310   -2.1770   56.4470 C.2   270  VAL270      0.2260
     41  O         21.4150   -1.6380   57.4430 O.2   270  VAL270     -0.2867
     42  CB        18.8370   -3.4930   56.7940 C.3   270  VAL270      0.0252
     43  CG1       18.2600   -4.8890   56.9150 C.3   270  VAL270      0.0019
     44  CG2       18.5740   -2.6870   58.0450 C.3   270  VAL270      0.0019
     45  N         20.0890    1.7640   55.2390 N.3   272  SER272     -0.1217
     46  CA        19.0510    2.6980   54.8240 C.3   272  SER272      0.1889
     47  C         19.6530    3.9550   54.2220 C.2   272  SER272      0.2288
     48  O         20.4640    4.6350   54.8580 O.2   272  SER272     -0.2866
     49  CB        18.1560    3.0830   56.0070 C.3   272  SER272      0.2089
     50  OG        17.3370    1.9930   56.3990 O.3   272  SER272     -0.2183
     51  N         13.1310    6.8900   53.1310 N.3   285  ARG285     -0.1245
     52  CA        14.2820    5.9990   53.0670 C.3   285  ARG285      0.1563
     53  C         14.0100    4.7640   52.2280 C.2   285  ARG285      0.2260
     54  O         12.8920    4.2490   52.1870 O.2   285  ARG285     -0.2867
     55  CB        14.7270    5.5820   54.4750 C.3   285  ARG285      0.0307
     56  CG        13.7450    4.6920   55.2120 C.3   285  ARG285      0.0489
     57  CD        14.2110    4.4300   56.6390 C.3   285  ARG285      0.2205
     58  NE        13.2450    3.6200   57.3730 N.pl3 285  ARG285     -0.0865
     59  CZ        13.1280    3.6040   58.6960 C.cat 285  ARG285      0.5346
     60  NH1       13.9160    4.3600   59.4500 N.pl3 285  ARG285      0.1354
     61  NH2       12.2230    2.8240   59.2660 N.pl3 285  ARG285      0.1354
     62  N         15.5010    0.8920   52.0770 N.3   287  THR287     -0.1218
     63  CA        16.2770    0.0080   52.9270 C.3   287  THR287      0.1862
     64  C         16.7090   -1.2130   52.1330 C.2   287  THR287      0.2287
     65  O         15.8970   -1.8500   51.4640 O.2   287  THR287     -0.2866
     66  CB        15.4580   -0.4010   54.1560 C.3   287  THR287      0.1770
     67  OG1       15.1640    0.7750   54.9270 O.3   287  THR287     -0.2211
     68  CG2       16.2250   -1.4030   55.0130 C.3   287  THR287      0.0375
     69  N         12.5430  -12.8820   57.9730 N.3   353  PHE353     -0.1227
     70  CA        12.7280  -11.9150   59.0560 C.3   353  PHE353      0.1736
     71  C         12.6930  -10.4600   58.5950 C.2   353  PHE353      0.2595
     72  O         12.1890   -9.5930   59.3090 O.2   353  PHE353     -0.2718
     73  CB        14.0560  -12.1680   59.7770 C.3   353  PHE353      0.0547
     74  CG        14.1570  -13.5290   60.4000 C.ar  353  PHE353     -0.0202
     75  CD1       14.9850  -14.4940   59.8520 C.ar  353  PHE353     -0.0042
     76  CD2       13.4190  -13.8440   61.5300 C.ar  353  PHE353     -0.0042
     77  CE1       15.0760  -15.7530   60.4230 C.ar  353  PHE353     -0.0003
     78  CE2       13.5060  -15.1010   62.1050 C.ar  353  PHE353     -0.0003
     79  CZ        14.3370  -16.0560   61.5490 C.ar  353  PHE353     -0.0000
     80  N         13.2430  -10.1910   57.4150 N.am  354  ARG354     -0.1966
     81  CA        13.4140   -8.8160   56.9610 C.3   354  ARG354      0.1729
     82  C         12.9410   -8.6180   55.5310 C.2   354  ARG354      0.2616
     83  O         12.7260   -9.5780   54.7880 O.2   354  ARG354     -0.2715
     84  CB        14.8840   -8.3960   57.0840 C.3   354  ARG354      0.0348
     85  CG        15.3840   -8.3660   58.5240 C.3   354  ARG354      0.0492
     86  CD        16.7970   -7.8120   58.6350 C.3   354  ARG354      0.2205
     87  NE        17.7860   -8.6830   58.0060 N.pl3 354  ARG354     -0.0865
     88  CZ        19.0970   -8.5540   58.1700 C.cat 354  ARG354      0.5346
     89  NH1       19.5800   -7.5900   58.9450 N.pl3 354  ARG354      0.1354
     90  NH2       19.9270   -9.3810   57.5510 N.pl3 354  ARG354      0.1354
     91  N         12.7710   -7.3590   55.1490 N.am  355  THR355     -0.1951
     92  CA        12.3490   -7.0390   53.7980 C.3   355  THR355      0.1897
     93  C         12.9130   -5.6950   53.3700 C.2   355  THR355      0.2313
     94  O         13.1110   -4.8010   54.1940 O.2   355  THR355     -0.2863
     95  CB        10.8080   -6.9950   53.6930 C.3   355  THR355      0.1794
     96  OG1       10.4290   -6.6250   52.3610 O.3   355  THR355     -0.2208
     97  CG2       10.2330   -5.9940   54.6780 C.3   355  THR355      0.0378
     98  N         12.4370   -2.0820   51.8240 N.3   357  ALA357     -0.1245
     99  CA        11.3200   -1.1930   52.0880 C.3   357  ALA357      0.1562
    100  C         11.5700    0.1920   51.5150 C.2   357  ALA357      0.2260
    101  O         12.7160    0.5850   51.2890 O.2   357  ALA357     -0.2867
    102  CB        11.0720   -1.1020   53.5990 C.3   357  ALA357      0.0290
    103  N         10.0710    3.8940   52.7710 N.3   359  GLU359     -0.1245
    104  CA         9.2790    4.3800   53.8970 C.3   359  GLU359      0.1567
    105  C          9.4470    5.8730   54.1280 C.2   359  GLU359      0.2260
    106  O         10.5210    6.4270   53.9150 O.2   359  GLU359     -0.2867
    107  CB         9.6710    3.6360   55.1730 C.3   359  GLU359      0.0388
    108  CG         9.5150    2.1320   55.0790 C.3   359  GLU359      0.1160
    109  CD        10.1220    1.4060   56.2620 C.2   359  GLU359      0.3649
    110  OE1        9.4940    0.4440   56.7390 O.co2 359  GLU359     -0.2457
    111  OE2       11.2250    1.7900   56.7100 O.co2 359  GLU359     -0.2457
@<TRIPOS>BOND
     1   101   100    2
     2    65    64    2
     3   100    99    1
     4    98    99    1
     5    62    63    1
     6    99   102    1
     7    64    63    1
     8    54    53    2
     9    53    52    1
    10    96    95    1
    11   103   104    1
    12    63    66    1
    13    52    51    1
    14    52    55    1
    15    93    92    1
    16    93    94    2
    17    95    92    1
    18    95    97    1
    19    92    91    1
    20   104   105    1
    21   104   107    1
    22   106   105    2
    23    66    67    1
    24    66    68    1
    25    47    46    1
    26    47    48    2
    27    55    56    1
    28    83    82    2
    29    46    45    1
    30    46    49    1
    31   108   107    1
    32   108   109    1
    33    91    82   am
    34    56    57    1
    35    82    81    1
    36    49    50    1
    37   109   111   ar
    38   109   110   ar
    39    40    39    1
    40    40    41    2
    41    39    42    1
    42    39    38    1
    43    57    58    1
    44    42    43    1
    45    42    44    1
    46    81    84    1
    47    81    80    1
    48    84    85    1
    49     4     3    2
    50     1     2    1
    51    58    59    2
    52    80    71   am
    53    90    88    1
    54    69    70    1
    55    87    88    2
    56    87    86    1
    57    88    89    1
    58     3     2    1
    59    22    23    1
    60    85    86    1
    61     2     5    1
    62    71    70    1
    63    71    72    2
    64    59    61    1
    65    59    60    1
    66    29    27   am
    67    70    73    1
    68     5     6    1
    69    23    24    1
    70    23    26    1
    71    35    37    1
    72    35    34    1
    73    73    74    1
    74     6     7    1
    75    75    74   ar
    76    75    77   ar
    77    32    33    2
    78    32    31    1
    79    30    24   am
    80    30    31    1
    81     8     7   ar
    82    27    26    1
    83    27    28    2
    84    10    11    1
    85    24    25    2
    86     7     9   ar
    87    74    76   ar
    88    77    79   ar
    89    31    34    1
    90    34    36    1
    91    11    14    1
    92    11    12    1
    93    76    78   ar
    94    79    78   ar
    95    18    12   am
    96    18    19    1
    97    14    15    1
    98    12    13    2
    99    19    20    1
   100    16    15    2
   101    15    17   am
   102    20    21    2
