@<TRIPOS>MOLECULE
tmp/2vinA00.pdb
 136 137 0 0 0
SMALL
GASTEIGER

@<TRIPOS>ATOM
      1  N         22.3100    9.1620   36.0910 N.3    46  HIS46      -0.1241
      2  CA        22.6830   10.3340   35.3130 C.3    46  HIS46       0.1621
      3  C         21.7620   10.4890   34.1050 C.2    46  HIS46       0.2264
      4  O         21.6200   11.5770   33.5450 O.2    46  HIS46      -0.2867
      5  CB        24.1810   10.3110   34.9340 C.3    46  HIS46       0.0745
      6  CG        24.5070    9.5170   33.7000 C.ar   46  HIS46       0.0817
      7  ND1       25.3280    8.4070   33.7260 N.ar   46  HIS46      -0.2268
      8  CD2       24.2070    9.7290   32.3940 C.ar   46  HIS46       0.1154
      9  CE1       25.5020    7.9570   32.4950 C.ar   46  HIS46       0.1986
     10  NE2       24.8580    8.7560   31.6660 N.ar   46  HIS46      -0.2212
     11  N         33.5730   -0.9320   22.4020 N.3   192  ASP192     -0.1225
     12  CA        33.2690   -0.2210   23.6480 C.3   192  ASP192      0.1805
     13  C         31.7780    0.1560   23.7170 C.2   192  ASP192      0.2598
     14  O         31.0870    0.1970   22.7030 O.2   192  ASP192     -0.2718
     15  CB        34.1210    1.0700   23.7220 C.3   192  ASP192      0.1424
     16  CG        34.2610    1.6350   25.1570 C.2   192  ASP192      0.3668
     17  OD1       33.7400    1.0540   26.1410 O.co2 192  ASP192     -0.2456
     18  OD2       34.9130    2.6880   25.2900 O.co2 192  ASP192     -0.2456
     19  N         31.2990    0.4830   24.9140 N.am  193  SER193     -0.1938
     20  CA        30.0510    1.2370   25.0220 C.3   193  SER193      0.2055
     21  C         30.3400    2.7090   24.6990 C.2   193  SER193      0.2643
     22  O         31.5000    3.1560   24.7020 O.2   193  SER193     -0.2714
     23  CB        29.4400    1.1060   26.4260 C.3   193  SER193      0.2130
     24  OG        30.4260    1.3160   27.4060 O.3   193  SER193     -0.2179
     25  N         29.2960    3.4480   24.3460 N.am  194  CYS194     -0.1953
     26  CA        29.4860    4.8470   23.9950 C.3   194  CYS194      0.1843
     27  C         28.2540    5.6540   24.4240 C.2   194  CYS194      0.2625
     28  O         27.3320    5.1050   25.0090 O.2   194  CYS194     -0.2714
     29  CB        29.7290    4.9890   22.4700 C.3   194  CYS194      0.0997
     30  SG        30.5360    6.5750   22.0060 S.3   194  CYS194     -0.0797
     31  N         28.2310    6.9520   24.1440 N.am  195  GLN195     -0.1977
     32  CA        27.0760    7.7600   24.5510 C.3   195  GLN195      0.1601
     33  C         25.7760    7.1590   24.0020 C.2   195  GLN195      0.2287
     34  O         25.6770    6.7770   22.8050 O.2   195  GLN195     -0.2864
     35  CB        27.2110    9.2080   24.0570 C.3   195  GLN195      0.0394
     36  CG        26.1580   10.1410   24.5920 C.3   195  GLN195      0.0908
     37  CD        26.5350   11.6050   24.3950 C.2   195  GLN195      0.2608
     38  OE1       26.7790   12.0440   23.2690 O.2   195  GLN195     -0.2717
     39  NE2       26.6050   12.3590   25.4940 N.am  195  GLN195     -0.0878
     40  N         24.4190    4.3430   28.1000 N.3   198  SER198     -0.1217
     41  CA        24.2620    4.5130   29.5420 C.3   198  SER198      0.1889
     42  C         23.0190    3.8230   30.0800 C.2   198  SER198      0.2288
     43  O         21.9650    3.8430   29.4420 O.2   198  SER198     -0.2866
     44  CB        24.2280    6.0110   29.9250 C.3   198  SER198      0.2089
     45  OG        25.4840    6.6260   29.6700 O.3   198  SER198     -0.2183
     46  N         26.2460    0.4410   32.4730 N.3   216  VAL216     -0.1231
     47  CA        27.0330    1.4100   31.7050 C.3   216  VAL216      0.1692
     48  C         26.9830    2.7800   32.3750 C.2   216  VAL216      0.2593
     49  O         25.8980    3.3230   32.5650 O.2   216  VAL216     -0.2718
     50  CB        26.5590    1.5030   30.2230 C.3   216  VAL216      0.0266
     51  CG1       27.4530    2.5320   29.4420 C.3   216  VAL216      0.0020
     52  CG2       26.5910    0.1410   29.5400 C.3   216  VAL216      0.0020
     53  N         28.1300    3.3150   32.7940 N.am  217  SER217     -0.1938
     54  CA        28.1140    4.6010   33.5240 C.3   217  SER217      0.2055
     55  C         28.8680    5.7710   32.8710 C.2   217  SER217      0.2643
     56  O         28.3090    6.8540   32.6980 O.2   217  SER217     -0.2714
     57  CB        28.5610    4.4250   34.9730 C.3   217  SER217      0.2130
     58  OG        28.4610    5.6500   35.6790 O.3   217  SER217     -0.2179
     59  N         30.1530    5.5780   32.5910 N.am  218  TRP218     -0.1959
     60  CA        30.9940    6.6810   32.1720 C.3   218  TRP218      0.1771
     61  C         32.3120    6.2390   31.5360 C.2   218  TRP218      0.2620
     62  O         32.6360    5.0620   31.4750 O.2   218  TRP218     -0.2715
     63  CB        31.2380    7.7040   33.2990 C.3   218  TRP218      0.0590
     64  CG        32.0810    7.1930   34.4360 C.ar  218  TRP218      0.0006
     65  CD1       31.6370    6.5500   35.5610 C.ar  218  TRP218      0.0946
     66  CD2       33.5000    7.3800   34.6150 C.ar  218  TRP218      0.0152
     67  NE1       32.6970    6.2530   36.3920 N.ar  218  TRP218     -0.2442
     68  CE2       33.8480    6.7690   35.8470 C.ar  218  TRP218      0.0810
     69  CE3       34.5220    7.9130   33.8090 C.ar  218  TRP218      0.0012
     70  CZ2       35.1740    6.7040   36.3070 C.ar  218  TRP218      0.0191
     71  CZ3       35.8370    7.8880   34.2900 C.ar  218  TRP218      0.0001
     72  CH2       36.1480    7.2780   35.5270 C.ar  218  TRP218      0.0015
     73  N         33.0410    7.2030   30.9970 N.am  219  GLY219     -0.1940
     74  CA        34.3960    6.9350   30.5480 C.3   219  GLY219      0.2014
     75  C         34.8500    8.1080   29.7170 C.2   219  GLY219      0.2639
     76  O         34.0580    9.0160   29.4320 O.2   219  GLY219     -0.2714
     77  N         36.1070    8.0700   29.2980 N.am  220  ARG220     -0.1963
     78  CA        36.6690    9.1250   28.4840 C.3   220  ARG220      0.1729
     79  C         36.5780    8.7160   27.0070 C.2   220  ARG220      0.2617
     80  O         37.2910    7.8160   26.5690 O.2   220  ARG220     -0.2715
     81  CB        38.1320    9.3640   28.8990 C.3   220  ARG220      0.0348
     82  CG        38.9240   10.2860   27.9500 C.3   220  ARG220      0.0492
     83  CD        38.5300   11.7700   28.0580 C.3   220  ARG220      0.2205
     84  NE        37.3550   12.0660   27.2420 N.pl3 220  ARG220     -0.0865
     85  CZ        37.3910   12.3350   25.9410 C.cat 220  ARG220      0.5346
     86  NH1       38.5510   12.3870   25.3080 N.pl3 220  ARG220      0.1354
     87  NH2       36.2620   12.5530   25.2740 N.pl3 220  ARG220      0.1354
     88  N         35.6810    9.3490   26.2620 N.am  221  GLY221     -0.1940
     89  CA        35.5070    9.0250   24.8570 C.3   221  GLY221      0.2014
     90  C         34.9990    7.5910   24.7540 C.2   221  GLY221      0.2639
     91  O         34.4370    7.0350   25.7190 O.2   221  GLY221     -0.2714
     92  N         35.1520    7.0130   23.5670 N.am  222  CYS222     -0.1967
     93  CA        34.6840    5.6500   23.2830 C.3   222  CYS222      0.1712
     94  C         35.7320    4.8800   22.4940 C.2   222  CYS222      0.2296
     95  O         36.1460    5.3010   21.4080 O.2   222  CYS222     -0.2864
     96  CB        33.3820    5.7060   22.4930 C.3   222  CYS222      0.0983
     97  SG        32.1030    6.7340   23.2890 S.3   222  CYS222     -0.0798
     98  N         41.6130    3.9490   27.9380 N.3   227  LYS227     -0.1231
     99  CA        40.4280    4.5580   28.5340 C.3   227  LYS227      0.1678
    100  C         39.2320    3.5870   28.5260 C.2   227  LYS227      0.2434
    101  O         38.3640    3.6610   27.6410 O.2   227  LYS227     -0.2733
    102  CB        40.0830    5.8700   27.7980 C.3   227  LYS227      0.0284
    103  CG        41.1900    6.9300   27.7980 C.3   227  LYS227      0.0035
    104  CD        41.5180    7.4360   29.2240 C.3   227  LYS227      0.0206
    105  CE        42.8700    8.1870   29.2150 C.3   227  LYS227      0.1093
    106  NZ        43.1860    8.7320   30.5630 N.3   227  LYS227     -0.1314
    107  N         39.1600    2.6830   29.5230 N.am  228  PRO228     -0.2718
    108  CA        38.0900    1.6660   29.5530 C.3   228  PRO228      0.1535
    109  C         36.6750    2.2660   29.7540 C.2   228  PRO228      0.2599
    110  O         36.5290    3.3850   30.2500 O.2   228  PRO228     -0.2715
    111  CB        38.4530    0.8170   30.7870 C.3   228  PRO228      0.0310
    112  CG        39.9540    1.0080   30.9400 C.3   228  PRO228      0.0237
    113  CD        40.1300    2.4760   30.6160 C.3   228  PRO228      0.0939
    114  N         35.6350    1.5170   29.3710 N.am  229  GLY229     -0.1941
    115  CA        34.2780    1.8290   29.7970 C.3   229  GLY229      0.2014
    116  C         34.2220    1.6910   31.3070 C.2   229  GLY229      0.2639
    117  O         34.8780    0.8100   31.8550 O.2   229  GLY229     -0.2714
    118  N         33.5290    2.5990   31.9990 N.am  230  VAL230     -0.1963
    119  CA        33.3460    2.4300   33.4520 C.3   230  VAL230      0.1727
    120  C         31.8870    2.1170   33.8160 C.2   230  VAL230      0.2616
    121  O         30.9470    2.6780   33.2330 O.2   230  VAL230     -0.2715
    122  CB        33.9480    3.6020   34.2850 C.3   230  VAL230      0.0290
    123  CG1       33.9240    3.2570   35.7930 C.3   230  VAL230      0.0023
    124  CG2       35.3780    3.8840   33.8310 C.3   230  VAL230      0.0023
    125  N         31.7180    1.1560   34.7160 N.am  231  TYR231     -0.1974
    126  CA        30.4170    0.5860   35.0210 C.3   231  TYR231      0.1639
    127  C         30.1630    0.6750   36.5070 C.2   231  TYR231      0.2290
    128  O         31.0500    0.4180   37.3230 O.2   231  TYR231     -0.2864
    129  CB        30.3520   -0.9000   34.5710 C.3   231  TYR231      0.0560
    130  CG        30.5580   -1.0550   33.0750 C.ar  231  TYR231     -0.0198
    131  CD1       31.8200   -0.8980   32.5110 C.ar  231  TYR231     -0.0009
    132  CD2       29.4590   -1.2180   32.2130 C.ar  231  TYR231     -0.0009
    133  CE1       32.0100   -0.9830   31.1180 C.ar  231  TYR231      0.0417
    134  CE2       29.6320   -1.2670   30.8230 C.ar  231  TYR231      0.0417
    135  CZ        30.9120   -1.1650   30.2890 C.ar  231  TYR231      0.1957
    136  OH        31.1080   -1.2310   28.9230 O.3   231  TYR231     -0.2866
@<TRIPOS>BOND
     1    95    94    2
     2    30    29    1
     3    30    97    1
     4    11    12    1
     5    29    26    1
     6    96    93    1
     7    96    97    1
     8    94    93    1
     9    14    13    2
    10    34    33    2
    11    38    37    2
    12    93    92    1
    13    92    90   am
    14    12    13    1
    15    12    15    1
    16    13    19   am
    17    15    16    1
    18    26    25    1
    19    26    27    1
    20    33    32    1
    21    35    32    1
    22    35    36    1
    23    31    27   am
    24    31    32    1
    25    25    21   am
    26    37    36    1
    27    37    39   am
    28    27    28    2
    29    21    22    2
    30    21    20    1
    31    90    89    1
    32    90    91    2
    33    89    88    1
    34    19    20    1
    35    20    23    1
    36    16    18   ar
    37    16    17   ar
    38    87    85    1
    39    86    85    1
    40    85    84    2
    41    88    79   am
    42    23    24    1
    43    80    79    2
    44    79    78    1
    45    84    83    1
    46   101   100    2
    47   102   103    1
    48   102    99    1
    49   103   104    1
    50    98    99    1
    51    82    83    1
    52    82    81    1
    53    40    41    1
    54    78    81    1
    55    78    77    1
    56   100    99    1
    57   100   107   am
    58   136   135    1
    59   105   104    1
    60   105   106    1
    61    77    75   am
    62   114   109   am
    63   114   115    1
    64    76    75    2
    65    51    50    1
    66    43    42    2
    67   107   108    1
    68   107   113    1
    69    52    50    1
    70    41    44    1
    71    41    42    1
    72   108   109    1
    73   108   111    1
    74    45    44    1
    75    75    74    1
    76   109   110    2
    77   115   116    1
    78    50    47    1
    79   135   134   ar
    80   135   133   ar
    81    74    73    1
    82   113   112    1
    83   111   112    1
    84   134   132   ar
    85    73    61   am
    86   133   131   ar
    87   116   117    2
    88   116   118   am
    89    62    61    2
    90    61    60    1
    91    10     8   ar
    92    10     9   ar
    93    47    48    1
    94    47    46    1
    95   118   119    1
    96    60    59    1
    97    60    63    1
    98   132   130   ar
    99    48    49    2
   100    48    53   am
   101     8     6   ar
   102     9     7   ar
   103   131   130   ar
   104    59    55   am
   105    56    55    2
   106    53    54    1
   107    55    54    1
   108   130   129    1
   109   121   120    2
   110    63    64    1
   111   119   120    1
   112   119   122    1
   113    54    57    1
   114     4     3    2
   115     6     7   ar
   116     6     5    1
   117    69    71   ar
   118    69    66   ar
   119   120   125   am
   120   124   122    1
   121     3     2    1
   122   122   123    1
   123    71    72   ar
   124    64    66   ar
   125    64    65   ar
   126   129   126    1
   127    66    68   ar
   128   125   126    1
   129     5     2    1
   130    57    58    1
   131   126   127    1
   132     2     1    1
   133    72    70   ar
   134    65    67   ar
   135    68    70   ar
   136    68    67   ar
   137   127   128    2
