@<TRIPOS>MOLECULE
tmp/2vioA00.pdb
 120 119 0 0 0
SMALL
GASTEIGER

@<TRIPOS>ATOM
      1  N         21.9200    9.1450   36.3430 N.3    46  HIS46      -0.1241
      2  CA        22.3410   10.3000   35.5410 C.3    46  HIS46       0.1621
      3  C         21.4420   10.4400   34.3160 C.2    46  HIS46       0.2264
      4  O         21.3190   11.5170   33.7390 O.2    46  HIS46      -0.2867
      5  CB        23.8440   10.2400   35.1880 C.3    46  HIS46       0.0745
      6  CG        24.1630    9.4950   33.9200 C.ar   46  HIS46       0.0817
      7  ND1       24.9130    8.3330   33.9050 N.ar   46  HIS46      -0.2268
      8  CD2       23.8770    9.7730   32.6220 C.ar   46  HIS46       0.1154
      9  CE1       25.0580    7.9170   32.6590 C.ar   46  HIS46       0.1986
     10  NE2       24.4450    8.7740   31.8610 N.ar   46  HIS46      -0.2212
     11  N         30.6040    9.5100   37.6540 N.3    94  HIS94      -0.1241
     12  CA        29.2940    9.5760   38.2900 C.3    94  HIS94       0.1621
     13  C         29.3370    8.6030   39.4550 C.2    94  HIS94       0.2264
     14  O         29.8860    7.5140   39.3270 O.2    94  HIS94      -0.2867
     15  CB        28.1810    9.1950   37.3010 C.3    94  HIS94       0.0745
     16  CG        28.0770   10.1280   36.1330 C.ar   94  HIS94       0.0817
     17  ND1       27.0010   10.9680   35.9510 N.ar   94  HIS94      -0.2268
     18  CD2       28.9790   10.4620   35.1760 C.ar   94  HIS94       0.1154
     19  CE1       27.2120   11.7290   34.8920 C.ar   94  HIS94       0.1986
     20  NE2       28.4080   11.4480   34.4070 N.ar   94  HIS94      -0.2212
     21  N         33.4350   -0.8680   22.7690 N.3   192  ASP192     -0.1225
     22  CA        33.1700   -0.1070   23.9990 C.3   192  ASP192      0.1805
     23  C         31.7040    0.3170   24.0000 C.2   192  ASP192      0.2598
     24  O         31.0480    0.3420   22.9690 O.2   192  ASP192     -0.2718
     25  CB        34.0510    1.1770   24.0150 C.3   192  ASP192      0.1424
     26  CG        34.2480    1.7720   25.4290 C.2   192  ASP192      0.3668
     27  OD1       33.9250    1.1160   26.4450 O.co2 192  ASP192     -0.2456
     28  OD2       34.7920    2.8970   25.5200 O.co2 192  ASP192     -0.2456
     29  N         31.2020    0.6620   25.1740 N.am  193  SER193     -0.1938
     30  CA        29.9630    1.4340   25.2880 C.3   193  SER193      0.2055
     31  C         30.2360    2.8810   24.8080 C.2   193  SER193      0.2643
     32  O         31.3920    3.3310   24.7370 O.2   193  SER193     -0.2714
     33  CB        29.5690    1.4720   26.7550 C.3   193  SER193      0.2130
     34  OG        30.6470    1.9990   27.5170 O.3   193  SER193     -0.2179
     35  N         29.1790    3.6070   24.4630 N.am  194  CYS194     -0.1953
     36  CA        29.3430    5.0070   24.0890 C.3   194  CYS194      0.1843
     37  C         28.0900    5.7740   24.5090 C.2   194  CYS194      0.2625
     38  O         27.1820    5.1880   25.0970 O.2   194  CYS194     -0.2714
     39  CB        29.6450    5.1610   22.5890 C.3   194  CYS194      0.0997
     40  SG        30.4520    6.7630   22.1320 S.3   194  CYS194     -0.0797
     41  N         28.0820    7.0900   24.3230 N.am  195  GLN195     -0.1963
     42  CA        26.8960    7.8660   24.6660 C.3   195  GLN195      0.1733
     43  C         25.5950    7.2390   24.1250 C.2   195  GLN195      0.2616
     44  O         25.4860    6.9000   22.9340 O.2   195  GLN195     -0.2715
     45  CB        27.0210    9.3170   24.1500 C.3   195  GLN195      0.0408
     46  CG        25.8200   10.1510   24.5150 C.3   195  GLN195      0.0908
     47  CD        26.0790   11.6320   24.3530 C.2   195  GLN195      0.2608
     48  OE1       25.9530   12.1750   23.2580 O.2   195  GLN195     -0.2717
     49  NE2       26.4540   12.2940   25.4460 N.am  195  GLN195     -0.0878
     50  N         24.5910    7.1380   24.9900 N.am  196  GLY196     -0.1955
     51  CA        23.3460    6.4940   24.6150 C.3   196  GLY196      0.1869
     52  C         23.2520    5.0850   25.1820 C.2   196  GLY196      0.2309
     53  O         22.1580    4.5570   25.3720 O.2   196  GLY196     -0.2863
     54  N         24.2460    4.4010   28.2510 N.3   198  SER198     -0.1217
     55  CA        24.0600    4.5540   29.7000 C.3   198  SER198      0.1889
     56  C         22.7780    3.8670   30.2100 C.2   198  SER198      0.2288
     57  O         21.7460    3.8390   29.5280 O.2   198  SER198     -0.2866
     58  CB        24.0360    6.0510   30.0840 C.3   198  SER198      0.2089
     59  OG        25.3140    6.6450   29.8630 O.3   198  SER198     -0.2183
     60  N         25.9720    0.4350   32.6660 N.3   216  VAL216     -0.1231
     61  CA        26.7290    1.4450   31.9500 C.3   216  VAL216      0.1692
     62  C         26.6450    2.8070   32.6150 C.2   216  VAL216      0.2593
     63  O         25.5530    3.3350   32.8160 O.2   216  VAL216     -0.2718
     64  CB        26.3000    1.5580   30.4680 C.3   216  VAL216      0.0266
     65  CG1       27.1810    2.6290   29.7790 C.3   216  VAL216      0.0020
     66  CG2       26.4330    0.1920   29.7630 C.3   216  VAL216      0.0020
     67  N         27.7830    3.4220   32.9250 N.am  217  SER217     -0.1938
     68  CA        27.7090    4.6410   33.7570 C.3   217  SER217      0.2055
     69  C         28.4640    5.8400   33.1840 C.2   217  SER217      0.2643
     70  O         27.8580    6.8630   32.8700 O.2   217  SER217     -0.2714
     71  CB        28.1490    4.3550   35.1990 C.3   217  SER217      0.2130
     72  OG        28.1650    5.5630   35.9620 O.3   217  SER217     -0.2179
     73  N         29.7650    5.6560   32.9530 N.am  218  TRP218     -0.1959
     74  CA        30.5940    6.7240   32.4380 C.3   218  TRP218      0.1771
     75  C         31.9100    6.2350   31.8310 C.2   218  TRP218      0.2620
     76  O         32.2230    5.0260   31.8270 O.2   218  TRP218     -0.2715
     77  CB        30.8620    7.7790   33.5230 C.3   218  TRP218      0.0590
     78  CG        31.6940    7.2730   34.6830 C.ar  218  TRP218      0.0006
     79  CD1       31.2240    6.6990   35.8260 C.ar  218  TRP218      0.0946
     80  CD2       33.1150    7.4530   34.8800 C.ar  218  TRP218      0.0152
     81  NE1       32.2580    6.4750   36.7120 N.ar  218  TRP218     -0.2442
     82  CE2       33.4240    6.9520   36.1680 C.ar  218  TRP218      0.0810
     83  CE3       34.1450    8.0020   34.1060 C.ar  218  TRP218      0.0012
     84  CZ2       34.7280    6.9530   36.6860 C.ar  218  TRP218      0.0191
     85  CZ3       35.4580    8.0040   34.6330 C.ar  218  TRP218      0.0001
     86  CH2       35.7250    7.4920   35.9080 C.ar  218  TRP218      0.0015
     87  N         32.6350    7.1860   31.2450 N.am  219  GLY219     -0.1954
     88  CA        33.9480    6.9430   30.6760 C.3   219  GLY219      0.1869
     89  C         34.4210    8.1720   29.9160 C.2   219  GLY219      0.2309
     90  O         33.6350    9.0660   29.6070 O.2   219  GLY219     -0.2863
     91  N         35.4550    9.4910   26.5230 N.3   221  GLY221     -0.1210
     92  CA        35.3560    9.1220   25.1170 C.3   221  GLY221      0.1956
     93  C         34.8920    7.6810   24.9460 C.2   221  GLY221      0.2612
     94  O         34.3490    7.0790   25.8760 O.2   221  GLY221     -0.2717
     95  N         35.1160    7.1130   23.7640 N.am  222  CYS222     -0.1970
     96  CA        34.6000    5.7820   23.4510 C.3   222  CYS222      0.1712
     97  C         35.6470    4.9640   22.7220 C.2   222  CYS222      0.2296
     98  O         35.9880    5.2630   21.5800 O.2   222  CYS222     -0.2864
     99  CB        33.3400    5.9000   22.5930 C.3   222  CYS222      0.0983
    100  SG        32.0490    6.9040   23.3820 S.3   222  CYS222     -0.0798
    101  N         41.4010    4.2540   28.4750 N.3   227  LYS227     -0.1231
    102  CA        40.2030    4.8210   29.0880 C.3   227  LYS227      0.1678
    103  C         39.0500    3.8110   29.0420 C.2   227  LYS227      0.2434
    104  O         38.2270    3.8280   28.1260 O.2   227  LYS227     -0.2733
    105  CB        39.8090    6.1390   28.4090 C.3   227  LYS227      0.0284
    106  CG        40.9020    7.1820   28.4570 C.3   227  LYS227      0.0035
    107  CD        41.2390    7.6110   29.8980 C.3   227  LYS227      0.0206
    108  CE        42.4860    8.5240   29.9130 C.3   227  LYS227      0.1093
    109  NZ        42.5340    9.2990   31.1650 N.3   227  LYS227     -0.1314
    110  N         39.0000    2.9040   30.0270 N.am  228  PRO228     -0.2718
    111  CA        37.9510    1.8720   30.0170 C.3   228  PRO228      0.1535
    112  C         36.5450    2.4590   30.2200 C.2   228  PRO228      0.2599
    113  O         36.3880    3.5690   30.7470 O.2   228  PRO228     -0.2715
    114  CB        38.3010    0.9920   31.2270 C.3   228  PRO228      0.0310
    115  CG        39.7610    1.2540   31.4980 C.3   228  PRO228      0.0237
    116  CD        39.9630    2.7070   31.1300 C.3   228  PRO228      0.0939
    117  N         35.5360    1.7020   29.7900 N.am  229  GLY229     -0.1955
    118  CA        34.1620    1.9670   30.1490 C.3   229  GLY229      0.1869
    119  C         33.9910    1.7520   31.6360 C.2   229  GLY229      0.2309
    120  O         34.6030    0.8490   32.2100 O.2   229  GLY229     -0.2863
@<TRIPOS>BOND
     1    98    97    2
     2    40    39    1
     3    40   100    1
     4    39    36    1
     5    99   100    1
     6    99    96    1
     7    97    96    1
     8    21    22    1
     9    44    43    2
    10    24    23    2
    11    48    47    2
    12    96    95    1
    13    95    93   am
    14    22    23    1
    15    22    25    1
    16    23    29   am
    17    25    26    1
    18    36    35    1
    19    36    37    1
    20    43    42    1
    21    43    50   am
    22    45    46    1
    23    45    42    1
    24    41    37   am
    25    41    42    1
    26    47    46    1
    27    47    49   am
    28    35    31   am
    29    37    38    2
    30    51    50    1
    31    51    52    1
    32    32    31    2
    33    31    30    1
    34    93    92    1
    35    93    94    2
    36    92    91    1
    37    29    30    1
    38    52    53    2
    39    30    33    1
    40    26    28   ar
    41    26    27   ar
    42    33    34    1
    43   104   103    2
    44    54    55    1
    45   105   106    1
    46   105   102    1
    47   106   107    1
    48   101   102    1
    49   103   102    1
    50   103   110   am
    51    57    56    2
    52    90    89    2
    53    55    58    1
    54    55    56    1
    55    66    64    1
    56    65    64    1
    57   117   118    1
    58   117   112   am
    59    59    58    1
    60   107   108    1
    61   108   109    1
    62    89    88    1
    63   111   110    1
    64   111   112    1
    65   111   114    1
    66   110   116    1
    67   118   119    1
    68   112   113    2
    69    64    61    1
    70    88    87    1
    71   116   115    1
    72   114   115    1
    73    87    75   am
    74   119   120    2
    75    76    75    2
    76    75    74    1
    77    10     8   ar
    78    10     9   ar
    79    61    62    1
    80    61    60    1
    81    74    73    1
    82    74    77    1
    83    62    63    2
    84    62    67   am
    85     8     6   ar
    86     9     7   ar
    87    70    69    2
    88    67    68    1
    89    73    69   am
    90    69    68    1
    91    77    78    1
    92     4     3    2
    93    68    71    1
    94     7     6   ar
    95     6     5    1
    96    83    85   ar
    97    83    80   ar
    98     3     2    1
    99    20    19   ar
   100    20    18   ar
   101    85    86   ar
   102    78    80   ar
   103    78    79   ar
   104    80    82   ar
   105    19    17   ar
   106    18    16   ar
   107     5     2    1
   108    71    72    1
   109     2     1    1
   110    79    81   ar
   111    86    84   ar
   112    17    16   ar
   113    16    15    1
   114    82    84   ar
   115    82    81   ar
   116    15    12    1
   117    11    12    1
   118    12    13    1
   119    14    13    2
