@<TRIPOS>MOLECULE
tmp/2vipA00.pdb
 190 188 0 0 0
SMALL
GASTEIGER

@<TRIPOS>ATOM
      1  N         12.0760    9.5180   26.7110 N.3    20  ARG20      -0.1245
      2  CA        11.4470   10.6550   27.3670 C.3    20  ARG20       0.1563
      3  C         10.5380   11.4260   26.3880 C.2    20  ARG20       0.2260
      4  O         10.9350   11.6800   25.2490 O.2    20  ARG20      -0.2867
      5  CB        12.5000   11.6000   28.0110 C.3    20  ARG20       0.0307
      6  CG        11.8170   12.7320   28.8180 C.3    20  ARG20       0.0489
      7  CD        12.7440   13.6410   29.6320 C.3    20  ARG20       0.2205
      8  NE        13.8940   14.1390   28.8830 N.pl3  20  ARG20      -0.0865
      9  CZ        14.0050   15.3740   28.3880 C.cat  20  ARG20       0.5346
     10  NH1       13.0320   16.2760   28.5660 N.pl3  20  ARG20       0.1354
     11  NH2       15.1010   15.7050   27.7100 N.pl3  20  ARG20       0.1354
     12  N         16.5470    7.8790   25.6870 N.3    30  VAL30      -0.1231
     13  CA        17.3190    8.4150   26.8290 C.3    30  VAL30       0.1692
     14  C         18.4920    7.4970   27.1760 C.2    30  VAL30       0.2592
     15  O         19.6610    7.8830   27.0890 O.2    30  VAL30      -0.2718
     16  CB        16.3970    8.5980   28.0700 C.3    30  VAL30       0.0266
     17  CG1       17.2560    8.9810   29.3150 C.3    30  VAL30       0.0020
     18  CG2       15.3540    9.7150   27.7920 C.3    30  VAL30       0.0020
     19  N         18.1680    6.2480   27.5300 N.am   31  CYS31      -0.1970
     20  CA        19.1900    5.3220   28.0550 C.3    31  CYS31       0.1712
     21  C         18.6590    3.8840   27.9880 C.2    31  CYS31       0.2296
     22  O         17.4470    3.6680   27.9020 O.2    31  CYS31      -0.2864
     23  CB        19.5010    5.6590   29.5420 C.3    31  CYS31       0.0983
     24  SG        20.6580    7.0440   29.8130 S.3    31  CYS31      -0.0798
     25  N         22.3740    9.1480   36.2380 N.3    46  HIS46      -0.1226
     26  CA        22.7020   10.3170   35.4200 C.3    46  HIS46       0.1752
     27  C         21.7610   10.4760   34.2440 C.2    46  HIS46       0.2596
     28  O         21.6530   11.5710   33.6810 O.2    46  HIS46      -0.2718
     29  CB        24.1800   10.3270   34.9950 C.3    46  HIS46       0.0759
     30  CG        24.4850    9.5240   33.7550 C.ar   46  HIS46       0.0818
     31  ND1       25.2300    8.3550   33.7800 N.ar   46  HIS46      -0.2268
     32  CD2       24.2410    9.7830   32.4460 C.ar   46  HIS46       0.1154
     33  CE1       25.3840    7.9080   32.5420 C.ar   46  HIS46       0.1986
     34  NE2       24.8050    8.7640   31.7160 N.ar   46  HIS46      -0.2212
     35  N         21.1220    9.3740   33.8410 N.am   47  CYS47      -0.1970
     36  CA        20.1440    9.3960   32.7520 C.3    47  CYS47       0.1712
     37  C         18.9360   10.3000   33.0480 C.2    47  CYS47       0.2296
     38  O         18.2760   10.7870   32.1150 O.2    47  CYS47      -0.2864
     39  CB        19.6520    7.9650   32.4720 C.3    47  CYS47       0.0983
     40  SG        20.9340    6.9180   31.8140 S.3    47  CYS47      -0.0798
     41  N         18.6290   12.5740   36.1990 N.3    49  ILE49      -0.1231
     42  CA        18.8450   13.5670   37.2570 C.3    49  ILE49       0.1692
     43  C         18.4150   15.0040   36.8690 C.2    49  ILE49       0.2592
     44  O         17.9250   15.7490   37.7130 O.2    49  ILE49      -0.2718
     45  CB        20.3110   13.4860   37.8500 C.3    49  ILE49       0.0266
     46  CG1       20.4360   14.3820   39.0980 C.3    49  ILE49       0.0019
     47  CG2       21.3680   14.0250   36.8400 C.3    49  ILE49       0.0020
     48  CD1       19.9550   13.7870   40.3650 C.3    49  ILE49       0.0001
     49  N         18.5560   15.3560   35.5950 N.am   50  ASP50      -0.1960
     50  CA        18.1740   16.6780   35.0910 C.3    50  ASP50       0.1840
     51  C         16.6750   16.8050   34.7940 C.2    50  ASP50       0.2622
     52  O         16.1360   17.9180   34.7260 O.2    50  ASP50      -0.2715
     53  CB        18.9800   17.0400   33.8480 C.3    50  ASP50       0.1450
     54  CG        20.4430   17.3070   34.1700 C.2    50  ASP50       0.3671
     55  OD1       20.7460   17.4830   35.3690 O.co2  50  ASP50      -0.2456
     56  OD2       21.2910   17.2620   33.2500 O.co2  50  ASP50      -0.2456
     57  N         16.0150   15.6560   34.6580 N.am   51  TYR51      -0.1974
     58  CA        14.5830   15.5740   34.3950 C.3    51  TYR51       0.1639
     59  C         14.0030   14.4670   35.2670 C.2    51  TYR51       0.2290
     60  O         13.6120   13.3890   34.7680 O.2    51  TYR51      -0.2864
     61  CB        14.3290   15.2800   32.9150 C.3    51  TYR51       0.0560
     62  CG        14.8910   16.3670   32.0190 C.ar   51  TYR51      -0.0198
     63  CD1       16.2080   16.3070   31.5650 C.ar   51  TYR51      -0.0009
     64  CD2       14.1340   17.4980   31.7070 C.ar   51  TYR51      -0.0009
     65  CE1       16.7400   17.3230   30.7670 C.ar   51  TYR51       0.0417
     66  CE2       14.6540   18.5110   30.8900 C.ar   51  TYR51       0.0417
     67  CZ        15.9610   18.4250   30.4490 C.ar   51  TYR51       0.1957
     68  OH        16.4880   19.4190   29.6510 O.3    51  TYR51      -0.2866
     69  N         24.1750   10.2400   44.3790 N.3    87  TYR87      -0.1241
     70  CA        24.7140   10.4260   43.0340 C.3    87  TYR87       0.1605
     71  C         25.5500   11.6890   42.9640 C.2    87  TYR87       0.2264
     72  O         25.1530   12.7540   43.4850 O.2    87  TYR87      -0.2867
     73  CB        23.5670   10.5480   42.0230 C.3    87  TYR87       0.0534
     74  CG        24.0400   10.9880   40.6660 C.ar   87  TYR87      -0.0201
     75  CD1       24.7160   10.1040   39.8200 C.ar   87  TYR87      -0.0009
     76  CD2       23.9200   12.3240   40.2730 C.ar   87  TYR87      -0.0009
     77  CE1       25.2460   10.5440   38.6010 C.ar   87  TYR87       0.0417
     78  CE2       24.3990   12.7540   39.0540 C.ar   87  TYR87       0.0417
     79  CZ        25.0650   11.8540   38.2190 C.ar   87  TYR87       0.1957
     80  OH        25.5790   12.3180   37.0180 O.3    87  TYR87      -0.2866
     81  N         31.2440    9.3590   37.3970 N.3    94  HIS94      -0.1241
     82  CA        29.9310    9.4400   38.0240 C.3    94  HIS94       0.1621
     83  C         29.9450    8.4620   39.1670 C.2    94  HIS94       0.2264
     84  O         30.3340    7.3000   38.9970 O.2    94  HIS94      -0.2867
     85  CB        28.8230    9.1980   37.0040 C.3    94  HIS94       0.0745
     86  CG        28.7970   10.2460   35.9340 C.ar   94  HIS94       0.0817
     87  ND1       27.6930   11.0390   35.6930 N.ar   94  HIS94      -0.2268
     88  CD2       29.8010   10.7560   35.1810 C.ar   94  HIS94       0.1154
     89  CE1       28.0030   11.9460   34.7830 C.ar   94  HIS94       0.1986
     90  NE2       29.2760   11.7970   34.4580 N.ar   94  HIS94      -0.2212
     91  N         33.5050   -0.9110   22.4130 N.3   192  ASP192     -0.1225
     92  CA        33.2850   -0.2200   23.6900 C.3   192  ASP192      0.1805
     93  C         31.8300    0.2250   23.7580 C.2   192  ASP192      0.2598
     94  O         31.1790    0.3620   22.7340 O.2   192  ASP192     -0.2718
     95  CB        34.1710    1.0590   23.7400 C.3   192  ASP192      0.1424
     96  CG        34.3710    1.6100   25.1710 C.2   192  ASP192      0.3668
     97  OD1       33.8890    1.0430   26.2000 O.co2 192  ASP192     -0.2456
     98  OD2       34.9400    2.7180   25.2500 O.co2 192  ASP192     -0.2456
     99  N         31.3500    0.4920   24.9710 N.am  193  SER193     -0.1938
    100  CA        30.1620    1.3390   25.1370 C.3   193  SER193      0.2055
    101  C         30.4090    2.7920   24.6310 C.2   193  SER193      0.2643
    102  O         31.5440    3.2300   24.4690 O.2   193  SER193     -0.2714
    103  CB        29.7330    1.3810   26.6010 C.3   193  SER193      0.2130
    104  OG        30.7350    1.9730   27.3820 O.3   193  SER193     -0.2179
    105  N         29.3260    3.5200   24.3520 N.am  194  CYS194     -0.1953
    106  CA        29.4610    4.9070   23.9270 C.3   194  CYS194      0.1843
    107  C         28.2030    5.6800   24.3410 C.2   194  CYS194      0.2625
    108  O         27.3310    5.0900   24.9990 O.2   194  CYS194     -0.2714
    109  CB        29.7330    5.0100   22.4090 C.3   194  CYS194      0.0997
    110  SG        30.5260    6.5940   21.9730 S.3   194  CYS194     -0.0797
    111  N         28.2170    7.0050   24.1470 N.am  195  GLN195     -0.1963
    112  CA        27.0580    7.8460   24.4940 C.3   195  GLN195      0.1733
    113  C         25.7660    7.1750   24.0010 C.2   195  GLN195      0.2616
    114  O         25.6650    6.7470   22.8040 O.2   195  GLN195     -0.2715
    115  CB        27.1910    9.2600   23.8790 C.3   195  GLN195      0.0408
    116  CG        26.1420   10.2580   24.3970 C.3   195  GLN195      0.0908
    117  CD        26.3700   11.7200   23.9140 C.2   195  GLN195      0.2608
    118  OE1       27.3350   12.0250   23.2170 O.2   195  GLN195     -0.2717
    119  NE2       25.4040   12.5770   24.1850 N.am  195  GLN195     -0.0878
    120  N         24.7970    7.0500   24.9110 N.am  196  GLY196     -0.1955
    121  CA        23.4950    6.4380   24.6050 C.3   196  GLY196      0.1869
    122  C         23.3850    5.0040   25.1110 C.2   196  GLY196      0.2309
    123  O         22.2850    4.4520   25.2580 O.2   196  GLY196     -0.2863
    124  N         24.5040    4.3560   28.1600 N.3   198  SER198     -0.1217
    125  CA        24.3140    4.5280   29.6110 C.3   198  SER198      0.1889
    126  C         23.0810    3.8350   30.1640 C.2   198  SER198      0.2288
    127  O         22.0180    3.8280   29.5250 O.2   198  SER198     -0.2866
    128  CB        24.3360    6.0110   30.0140 C.3   198  SER198      0.2089
    129  OG        25.6360    6.5630   29.6990 O.3   198  SER198     -0.2183
    130  N         26.2100    0.3700   32.5690 N.3   216  VAL216     -0.1231
    131  CA        26.9980    1.3640   31.8050 C.3   216  VAL216      0.1692
    132  C         26.9300    2.7250   32.4620 C.2   216  VAL216      0.2593
    133  O         25.8420    3.2670   32.6400 O.2   216  VAL216     -0.2718
    134  CB        26.5180    1.4680   30.3350 C.3   216  VAL216      0.0266
    135  CG1       27.3790    2.5360   29.5530 C.3   216  VAL216      0.0020
    136  CG2       26.6160    0.1090   29.6300 C.3   216  VAL216      0.0020
    137  N         28.0880    3.3150   32.7760 N.am  217  SER217     -0.1938
    138  CA        28.0950    4.5890   33.5350 C.3   217  SER217      0.2055
    139  C         28.8990    5.7370   32.8890 C.2   217  SER217      0.2643
    140  O         28.3740    6.8180   32.6640 O.2   217  SER217     -0.2714
    141  CB        28.5490    4.3700   35.0000 C.3   217  SER217      0.2130
    142  OG        28.5150    5.6080   35.7410 O.3   217  SER217     -0.2179
    143  N         30.1880    5.5290   32.6610 N.am  218  TRP218     -0.1959
    144  CA        31.0320    6.6230   32.1500 C.3   218  TRP218      0.1771
    145  C         32.3160    6.1110   31.4920 C.2   218  TRP218      0.2620
    146  O         32.5130    4.9150   31.3320 O.2   218  TRP218     -0.2715
    147  CB        31.3520    7.6570   33.2340 C.3   218  TRP218      0.0590
    148  CG        32.1930    7.1400   34.3940 C.ar  218  TRP218      0.0006
    149  CD1       31.7140    6.5070   35.5430 C.ar  218  TRP218      0.0946
    150  CD2       33.6240    7.2570   34.5630 C.ar  218  TRP218      0.0152
    151  NE1       32.7740    6.1950   36.3830 N.ar  218  TRP218     -0.2442
    152  CE2       33.9450    6.6700   35.8340 C.ar  218  TRP218      0.0810
    153  CE3       34.6570    7.8330   33.7980 C.ar  218  TRP218      0.0012
    154  CZ2       35.2590    6.6280   36.3450 C.ar  218  TRP218      0.0191
    155  CZ3       36.0070    7.7120   34.2790 C.ar  218  TRP218      0.0001
    156  CH2       36.2790    7.1330   35.5530 C.ar  218  TRP218      0.0015
    157  N         33.1150    7.0400   30.9980 N.am  219  GLY219     -0.1954
    158  CA        34.3910    6.7020   30.4020 C.3   219  GLY219      0.1869
    159  C         34.8850    7.9810   29.7330 C.2   219  GLY219      0.2309
    160  O         34.1530    8.9700   29.6190 O.2   219  GLY219     -0.2863
    161  N         35.7540    9.2490   26.1820 N.3   221  GLY221     -0.1210
    162  CA        35.6200    8.9210   24.7790 C.3   221  GLY221      0.1956
    163  C         35.0820    7.5270   24.6320 C.2   221  GLY221      0.2612
    164  O         34.5460    6.9170   25.6060 O.2   221  GLY221     -0.2717
    165  N         35.1940    6.9960   23.4240 N.am  222  CYS222     -0.1970
    166  CA        34.7010    5.6360   23.1670 C.3   222  CYS222      0.1712
    167  C         35.7740    4.8570   22.4080 C.2   222  CYS222      0.2296
    168  O         36.2780    5.3090   21.3810 O.2   222  CYS222     -0.2864
    169  CB        33.4170    5.6860   22.3560 C.3   222  CYS222      0.0983
    170  SG        32.1590    6.7370   23.1650 S.3   222  CYS222     -0.0798
    171  N         41.6300    3.9320   27.9310 N.3   227  LYS227     -0.1231
    172  CA        40.4580    4.5540   28.5610 C.3   227  LYS227      0.1678
    173  C         39.2760    3.5750   28.4990 C.2   227  LYS227      0.2434
    174  O         38.4130    3.6930   27.6320 O.2   227  LYS227     -0.2733
    175  CB        40.0870    5.8710   27.8330 C.3   227  LYS227      0.0284
    176  CG        41.1120    7.0020   27.8840 C.3   227  LYS227      0.0035
    177  CD        41.4980    7.3740   29.3270 C.3   227  LYS227      0.0206
    178  CE        42.8310    8.1510   29.2190 C.3   227  LYS227      0.1093
    179  NZ        43.3290    8.5820   30.5140 N.3   227  LYS227     -0.1314
    180  N         39.1880    2.6440   29.4640 N.am  228  PRO228     -0.2718
    181  CA        38.1110    1.6430   29.4960 C.3   228  PRO228      0.1535
    182  C         36.7090    2.2480   29.6720 C.2   228  PRO228      0.2599
    183  O         36.5510    3.3450   30.2040 O.2   228  PRO228     -0.2715
    184  CB        38.4440    0.7990   30.7520 C.3   228  PRO228      0.0310
    185  CG        39.9750    0.9140   30.8750 C.3   228  PRO228      0.0237
    186  CD        40.1660    2.4330   30.5500 C.3   228  PRO228      0.0939
    187  N         35.6770    1.5210   29.2330 N.am  229  GLY229     -0.1955
    188  CA        34.3380    1.7820   29.7350 C.3   229  GLY229      0.1869
    189  C         34.2950    1.6020   31.2390 C.2   229  GLY229      0.2309
    190  O         34.9110    0.6530   31.7360 O.2   229  GLY229     -0.2863
@<TRIPOS>BOND
     1   168   167    2
     2   110   109    1
     3   110   170    1
     4   169   170    1
     5   169   166    1
     6   167   166    1
     7   109   106    1
     8    91    92    1
     9    94    93    2
    10   114   113    2
    11   166   165    1
    12   118   117    2
    13   165   163   am
    14    92    95    1
    15    92    93    1
    16    95    96    1
    17    93    99   am
    18   115   116    1
    19   115   112    1
    20   117   119   am
    21   117   116    1
    22   106   107    1
    23   106   105    1
    24   113   112    1
    25   113   120   am
    26   111   107   am
    27   111   112    1
    28   107   108    2
    29   105   101   am
    30   102   101    2
    31   121   120    1
    32   121   122    1
    33   101   100    1
    34   163   162    1
    35   163   164    2
    36   162   161    1
    37    99   100    1
    38   122   123    2
    39   100   103    1
    40    96    98   ar
    41    96    97   ar
    42     4     3    2
    43    12    13    1
    44     3     2    1
    45   103   104    1
    46     1     2    1
    47    13    14    1
    48    13    16    1
    49    15    14    2
    50    14    19   am
    51     2     5    1
    52    19    20    1
    53   174   173    2
    54    11     9    1
    55    18    16    1
    56   175   176    1
    57   175   172    1
    58   176   177    1
    59    22    21    2
    60   171   172    1
    61    21    20    1
    62     5     6    1
    63    20    23    1
    64    16    17    1
    65   124   125    1
    66     9    10    1
    67     9     8    2
    68   173   172    1
    69   173   180   am
    70     6     7    1
    71     8     7    1
    72   178   177    1
    73   178   179    1
    74   187   182   am
    75   187   188    1
    76   180   181    1
    77   180   186    1
    78   181   182    1
    79   181   184    1
    80   127   126    2
    81    23    24    1
    82   135   134    1
    83   125   128    1
    84   125   126    1
    85   160   159    2
    86   136   134    1
    87    68    67    1
    88   182   183    2
    89   129   128    1
    90   159   158    1
    91   188   189    1
    92    24    40    1
    93   134   131    1
    94   158   157    1
    95    67    65   ar
    96    67    66   ar
    97   186   185    1
    98   184   185    1
    99    65    63   ar
   100    66    64   ar
   101   157   145   am
   102   189   190    2
   103   146   145    2
   104   145   144    1
   105    63    62   ar
   106    64    62   ar
   107    34    32   ar
   108    34    33   ar
   109   131   132    1
   110   131   130    1
   111    40    39    1
   112    62    61    1
   113    38    37    2
   114   144   143    1
   115   144   147    1
   116    32    30   ar
   117   132   133    2
   118   132   137   am
   119    39    36    1
   120    33    31   ar
   121   143   139   am
   122   140   139    2
   123    36    37    1
   124    36    35    1
   125   137   138    1
   126   139   138    1
   127    61    58    1
   128   147   148    1
   129    56    54   ar
   130   138   141    1
   131    28    27    2
   132    30    31   ar
   133    30    29    1
   134   153   155   ar
   135   153   150   ar
   136    35    27   am
   137    53    54    1
   138    53    50    1
   139    54    55   ar
   140    27    26    1
   141   155   156   ar
   142   148   150   ar
   143   148   149   ar
   144    58    57    1
   145    58    59    1
   146    90    89   ar
   147    90    88   ar
   148   150   152   ar
   149    57    51   am
   150    52    51    2
   151    60    59    2
   152    89    87   ar
   153    51    50    1
   154    29    26    1
   155   141   142    1
   156    50    49    1
   157    88    86   ar
   158    26    25    1
   159   149   151   ar
   160   156   154   ar
   161    49    43   am
   162    87    86   ar
   163   152   154   ar
   164   152   151   ar
   165    86    85    1
   166    41    42    1
   167    47    45    1
   168    43    42    1
   169    43    44    2
   170    85    82    1
   171    80    79    1
   172    42    45    1
   173    81    82    1
   174    45    46    1
   175    82    83    1
   176    79    77   ar
   177    79    78   ar
   178    77    75   ar
   179    84    83    2
   180    78    76   ar
   181    46    48    1
   182    75    74   ar
   183    76    74   ar
   184    74    73    1
   185    73    70    1
   186    71    70    1
   187    71    72    2
   188    70    69    1
