@<TRIPOS>MOLECULE
tmp/2viqA00.pdb
 199 198 0 0 0
SMALL
GASTEIGER

@<TRIPOS>ATOM
      1  N         16.1160    7.9320   25.8030 N.3    30  VAL30      -0.1231
      2  CA        16.8750    8.3630   26.9720 C.3    30  VAL30       0.1692
      3  C         18.0660    7.4390   27.2710 C.2    30  VAL30       0.2592
      4  O         19.2200    7.8720   27.3550 O.2    30  VAL30      -0.2718
      5  CB        15.9480    8.5120   28.2150 C.3    30  VAL30       0.0266
      6  CG1       16.7460    8.8970   29.4460 C.3    30  VAL30       0.0020
      7  CG2       14.8680    9.5520   27.9490 C.3    30  VAL30       0.0020
      8  N         17.7740    6.1800   27.5430 N.am   31  CYS31      -0.1970
      9  CA        18.7880    5.3200   28.1350 C.3    31  CYS31       0.1712
     10  C         18.2710    3.8970   28.1110 C.2    31  CYS31       0.2296
     11  O         17.0810    3.6820   27.9180 O.2    31  CYS31      -0.2864
     12  CB        19.0450    5.7430   29.5850 C.3    31  CYS31       0.0983
     13  SG        20.2330    7.1110   29.9130 S.3    31  CYS31      -0.0798
     14  N         21.8040    9.1640   36.5230 N.3    46  HIS46      -0.1226
     15  CA        22.1910   10.3030   35.6960 C.3    46  HIS46       0.1752
     16  C         21.2820   10.4290   34.4720 C.2    46  HIS46       0.2596
     17  O         21.1640   11.5030   33.8850 O.2    46  HIS46      -0.2718
     18  CB        23.6910   10.2620   35.3400 C.3    46  HIS46       0.0759
     19  CG        24.0140    9.4760   34.1020 C.ar   46  HIS46       0.0818
     20  ND1       24.7090    8.2830   34.1380 N.ar   46  HIS46      -0.2268
     21  CD2       23.7710    9.7310   32.7910 C.ar   46  HIS46       0.1154
     22  CE1       24.8830    7.8380   32.9060 C.ar   46  HIS46       0.1986
     23  NE2       24.3090    8.6890   32.0700 N.ar   46  HIS46      -0.2212
     24  N         20.5740    9.3500   34.1450 N.am   47  CYS47      -0.1970
     25  CA        19.6500    9.3360   32.9930 C.3    47  CYS47       0.1712
     26  C         18.4110   10.1930   33.2040 C.2    47  CYS47       0.2296
     27  O         17.8420   10.7030   32.2450 O.2    47  CYS47      -0.2864
     28  CB        19.2000    7.8970   32.6630 C.3    47  CYS47       0.0983
     29  SG        20.5010    6.8640   31.9060 S.3    47  CYS47      -0.0798
     30  N         18.0660   12.4250   36.2550 N.3    49  ILE49      -0.1231
     31  CA        18.2460   13.4270   37.3200 C.3    49  ILE49       0.1692
     32  C         17.7780   14.8470   36.9230 C.2    49  ILE49       0.2592
     33  O         17.3350   15.6370   37.7630 O.2    49  ILE49      -0.2718
     34  CB        19.6900   13.3700   37.9110 C.3    49  ILE49       0.0266
     35  CG1       19.7590   14.0540   39.2800 C.3    49  ILE49       0.0019
     36  CG2       20.7010   13.9870   36.9450 C.3    49  ILE49       0.0020
     37  CD1       19.0880   13.3020   40.4110 C.3    49  ILE49       0.0001
     38  N         17.8110   15.1440   35.6310 N.am   50  ASP50      -0.1974
     39  CA        17.4250   16.4690   35.1440 C.3    50  ASP50       0.1709
     40  C         15.9400   16.6190   34.8290 C.2    50  ASP50       0.2293
     41  O         15.4510   17.7310   34.6840 O.2    50  ASP50      -0.2864
     42  CB        18.2820   16.8700   33.9300 C.3    50  ASP50       0.1436
     43  CG        19.6890   17.2740   34.3210 C.2    50  ASP50       0.3671
     44  OD1       19.8960   17.7320   35.4770 O.co2  50  ASP50      -0.2456
     45  OD2       20.6030   17.0710   33.4950 O.co2  50  ASP50      -0.2456
     46  N         27.7230   13.8090   40.6410 N.3    89  ALA89      -0.1231
     47  CA        28.4600   13.9050   39.3890 C.3    89  ALA89       0.1694
     48  C         29.6280   14.8730   39.4950 C.2    89  ALA89       0.2592
     49  O         29.4690   16.0090   39.9230 O.2    89  ALA89      -0.2718
     50  CB        27.5370   14.2970   38.2630 C.3    89  ALA89       0.0304
     51  N         30.8230   14.3510   39.2670 N.am   90  ASP90      -0.1960
     52  CA        32.0070   15.1730   39.1140 C.3    90  ASP90       0.1840
     53  C         32.2150   15.4100   37.6120 C.2    90  ASP90       0.2623
     54  O         31.2600   15.3900   36.8270 O.2    90  ASP90      -0.2715
     55  CB        33.2400   14.5000   39.7610 C.3    90  ASP90       0.1450
     56  CG        33.1720   14.4760   41.3070 C.2    90  ASP90       0.3671
     57  OD1       32.4520   13.6190   41.8650 O.co2  90  ASP90      -0.2456
     58  OD2       33.8860   15.2750   41.9690 O.co2  90  ASP90      -0.2456
     59  N         33.4540   15.6800   37.2250 N.am   91  THR91      -0.1937
     60  CA        33.7820   16.0100   35.8380 C.3    91  THR91       0.2028
     61  C         33.5220   14.8090   34.9310 C.2    91  THR91       0.2642
     62  O         33.0760   14.9440   33.7970 O.2    91  THR91      -0.2714
     63  CB        35.2670   16.4480   35.7150 C.3    91  THR91       0.1808
     64  OG1       35.6630   17.1770   36.8900 O.3    91  THR91      -0.2208
     65  CG2       35.4690   17.3100   34.4600 C.3    91  THR91       0.0379
     66  N         33.8500   13.6310   35.4380 N.am   92  LEU92      -0.1963
     67  CA        33.8830   12.4220   34.6290 C.3    92  LEU92       0.1728
     68  C         32.9540   11.3700   35.2500 C.2    92  LEU92       0.2616
     69  O         32.0530   10.8370   34.5890 O.2    92  LEU92      -0.2715
     70  CB        35.3260   11.8980   34.6050 C.3    92  LEU92       0.0311
     71  CG        35.8820   11.3180   33.3020 C.3    92  LEU92       0.0022
     72  CD1       35.4820   12.2150   32.1250 C.3    92  LEU92       0.0001
     73  CD2       37.3900   11.2510   33.4230 C.3    92  LEU92       0.0001
     74  N         33.1610   11.1260   36.5420 N.am   93  ALA93      -0.1963
     75  CA        32.4280   10.1000   37.2780 C.3    93  ALA93       0.1728
     76  C         30.9860   10.4960   37.6540 C.2    93  ALA93       0.2616
     77  O         30.6790   11.6770   37.8450 O.2    93  ALA93      -0.2715
     78  CB        33.2140    9.7210   38.5300 C.3    93  ALA93       0.0334
     79  N         30.0840    9.5150   37.6780 N.am   94  HIS94      -0.1973
     80  CA        28.8530    9.6350   38.4680 C.3    94  HIS94       0.1656
     81  C         29.0230    8.6620   39.6210 C.2    94  HIS94       0.2291
     82  O         29.5330    7.5700   39.4280 O.2    94  HIS94      -0.2864
     83  CB        27.6170    9.1990   37.6780 C.3    94  HIS94       0.0771
     84  CG        27.4220    9.9310   36.3860 C.ar   94  HIS94       0.0820
     85  ND1       26.7910   11.1520   36.3140 N.ar   94  HIS94      -0.2267
     86  CD2       27.7160    9.5830   35.1130 C.ar   94  HIS94       0.1154
     87  CE1       26.7390   11.5460   35.0560 C.ar   94  HIS94       0.1986
     88  NE2       27.2870   10.6060   34.3050 N.ar   94  HIS94      -0.2212
     89  N         33.3690   -0.8260   22.8860 N.3   192  ASP192     -0.1225
     90  CA        33.1100   -0.0480   24.0920 C.3   192  ASP192      0.1805
     91  C         31.6390    0.3160   24.1760 C.2   192  ASP192      0.2598
     92  O         30.9380    0.3050   23.1730 O.2   192  ASP192     -0.2718
     93  CB        33.9640    1.2400   24.0840 C.3   192  ASP192      0.1424
     94  CG        34.1170    1.8460   25.4700 C.2   192  ASP192      0.3668
     95  OD1       33.7530    1.1810   26.4480 O.co2 192  ASP192     -0.2456
     96  OD2       34.6290    2.9600   25.6150 O.co2 192  ASP192     -0.2456
     97  N         31.1800    0.6890   25.3670 N.am  193  SER193     -0.1938
     98  CA        29.9210    1.4320   25.4960 C.3   193  SER193      0.2055
     99  C         30.1590    2.8790   25.0190 C.2   193  SER193      0.2643
    100  O         31.3050    3.3390   24.9290 O.2   193  SER193     -0.2714
    101  CB        29.4370    1.4410   26.9500 C.3   193  SER193      0.2130
    102  OG        30.4160    1.9740   27.8310 O.3   193  SER193     -0.2179
    103  N         29.0790    3.6000   24.7470 N.am  194  CYS194     -0.1953
    104  CA        29.1910    5.0040   24.3690 C.3   194  CYS194      0.1843
    105  C         27.9320    5.7750   24.7970 C.2   194  CYS194      0.2625
    106  O         27.0550    5.2170   25.4490 O.2   194  CYS194     -0.2714
    107  CB        29.4070    5.1130   22.8450 C.3   194  CYS194      0.0997
    108  SG        30.1460    6.6710   22.2650 S.3   194  CYS194     -0.0797
    109  N         27.8920    7.0770   24.5170 N.am  195  GLN195     -0.1963
    110  CA        26.7400    7.8820   24.8820 C.3   195  GLN195      0.1733
    111  C         25.4570    7.2330   24.3800 C.2   195  GLN195      0.2616
    112  O         25.3750    6.7930   23.2240 O.2   195  GLN195     -0.2715
    113  CB        26.8480    9.3170   24.3250 C.3   195  GLN195      0.0408
    114  CG        25.7360   10.2140   24.8440 C.3   195  GLN195      0.0908
    115  CD        25.6780   11.5410   24.1180 C.2   195  GLN195      0.2608
    116  OE1       26.6920   12.2170   23.9650 O.2   195  GLN195     -0.2717
    117  NE2       24.4890   11.9190   23.6650 N.am  195  GLN195     -0.0878
    118  N         24.4640    7.1620   25.2570 N.am  196  GLY196     -0.1955
    119  CA        23.2150    6.5180   24.9100 C.3   196  GLY196      0.1869
    120  C         23.1350    5.0680   25.3730 C.2   196  GLY196      0.2309
    121  O         22.0540    4.4840   25.3930 O.2   196  GLY196     -0.2863
    122  N         24.1440    4.4050   28.4300 N.3   198  SER198     -0.1217
    123  CA        23.8880    4.5940   29.8640 C.3   198  SER198      0.1889
    124  C         22.6420    3.8460   30.3650 C.2   198  SER198      0.2288
    125  O         21.5860    3.8320   29.7060 O.2   198  SER198     -0.2866
    126  CB        23.7600    6.0920   30.1690 C.3   198  SER198      0.2089
    127  OG        24.9640    6.7560   29.8420 O.3   198  SER198     -0.2183
    128  N         25.7400    0.4280   32.7650 N.3   216  VAL216     -0.1231
    129  CA        26.4870    1.4490   32.0230 C.3   216  VAL216      0.1692
    130  C         26.3990    2.8140   32.6930 C.2   216  VAL216      0.2593
    131  O         25.3100    3.3570   32.8870 O.2   216  VAL216     -0.2718
    132  CB        26.0770    1.5130   30.5390 C.3   216  VAL216      0.0266
    133  CG1       26.9150    2.6060   29.7920 C.3   216  VAL216      0.0020
    134  CG2       26.2810    0.1330   29.8890 C.3   216  VAL216      0.0020
    135  N         27.5510    3.3750   33.0500 N.am  217  SER217     -0.1938
    136  CA        27.5480    4.6040   33.8270 C.3   217  SER217      0.2055
    137  C         28.3330    5.7700   33.2480 C.2   217  SER217      0.2643
    138  O         27.7480    6.8040   32.9590 O.2   217  SER217     -0.2714
    139  CB        27.8780    4.3720   35.3070 C.3   217  SER217      0.2130
    140  OG        27.9250    5.6270   35.9690 O.3   217  SER217     -0.2179
    141  N         29.6410    5.6010   33.0520 N.am  218  TRP218     -0.1959
    142  CA        30.4610    6.6800   32.5150 C.3   218  TRP218      0.1771
    143  C         31.7680    6.2030   31.8740 C.2   218  TRP218      0.2620
    144  O         32.0570    4.9990   31.7870 O.2   218  TRP218     -0.2715
    145  CB        30.7780    7.7260   33.5990 C.3   218  TRP218      0.0590
    146  CG        31.6140    7.1920   34.7790 C.ar  218  TRP218      0.0006
    147  CD1       31.1410    6.5340   35.8870 C.ar  218  TRP218      0.0946
    148  CD2       33.0180    7.4190   35.0210 C.ar  218  TRP218      0.0152
    149  NE1       32.1730    6.2880   36.7770 N.ar  218  TRP218     -0.2442
    150  CE2       33.3330    6.8200   36.2720 C.ar  218  TRP218      0.0810
    151  CE3       34.0510    7.9890   34.2700 C.ar  218  TRP218      0.0012
    152  CZ2       34.6390    6.8070   36.7960 C.ar  218  TRP218      0.0191
    153  CZ3       35.3530    7.9870   34.7980 C.ar  218  TRP218      0.0001
    154  CH2       35.6240    7.4320   36.0630 C.ar  218  TRP218      0.0015
    155  N         32.5320    7.1770   31.3960 N.am  219  GLY219     -0.1940
    156  CA        33.8680    6.9640   30.8920 C.3   219  GLY219      0.2014
    157  C         34.2710    8.2010   30.1140 C.2   219  GLY219      0.2639
    158  O         33.4340    9.0580   29.8660 O.2   219  GLY219     -0.2714
    159  N         35.5540    8.3040   29.7720 N.am  220  ARG220     -0.1963
    160  CA        36.0900    9.3970   28.9560 C.3   220  ARG220      0.1729
    161  C         36.1460    8.9470   27.4970 C.2   220  ARG220      0.2617
    162  O         36.9100    8.0460   27.1610 O.2   220  ARG220     -0.2715
    163  CB        37.5120    9.7380   29.4700 C.3   220  ARG220      0.0348
    164  CG        38.4560   10.4350   28.4960 C.3   220  ARG220      0.0492
    165  CD        38.2530   11.9380   28.4830 C.3   220  ARG220      0.2205
    166  NE        37.0090   12.3010   27.8090 N.pl3 220  ARG220     -0.0865
    167  CZ        36.9060   12.5570   26.5040 C.cat 220  ARG220      0.5346
    168  NH1       37.9880   12.5110   25.7300 N.pl3 220  ARG220      0.1354
    169  NH2       35.7180   12.8580   25.9780 N.pl3 220  ARG220      0.1354
    170  N         35.2510    9.4690   26.6640 N.am  221  GLY221     -0.1940
    171  CA        35.2260    9.1410   25.2490 C.3   221  GLY221      0.2014
    172  C         34.7660    7.7180   25.0430 C.2   221  GLY221      0.2639
    173  O         34.2970    7.0900   25.9950 O.2   221  GLY221     -0.2714
    174  N         34.9380    7.2000   23.8260 N.am  222  CYS222     -0.1967
    175  CA        34.4090    5.8890   23.4540 C.3   222  CYS222      0.1712
    176  C         35.4660    5.0500   22.7480 C.2   222  CYS222      0.2296
    177  O         35.9500    5.4180   21.6940 O.2   222  CYS222     -0.2864
    178  CB        33.1370    6.0280   22.6190 C.3   222  CYS222      0.0983
    179  SG        31.7670    6.9420   23.4570 S.3   222  CYS222     -0.0798
    180  N         41.2880    4.2060   28.5740 N.3   227  LYS227     -0.1231
    181  CA        40.0730    4.7700   29.1500 C.3   227  LYS227      0.1678
    182  C         38.8990    3.7700   29.0840 C.2   227  LYS227      0.2434
    183  O         38.1100    3.7630   28.1340 O.2   227  LYS227     -0.2733
    184  CB        39.7170    6.1190   28.5020 C.3   227  LYS227      0.0284
    185  CG        40.8610    7.1480   28.4700 C.3   227  LYS227      0.0035
    186  CD        41.2190    7.6570   29.8840 C.3   227  LYS227      0.0206
    187  CE        42.4170    8.6150   29.8740 C.3   227  LYS227      0.1093
    188  NZ        42.5320    9.3430   31.1650 N.3   227  LYS227     -0.1314
    189  N         38.7620    2.9200   30.1140 N.am  228  PRO228     -0.2718
    190  CA        37.6980    1.9040   30.1070 C.3   228  PRO228      0.1535
    191  C         36.2990    2.4630   30.3330 C.2   228  PRO228      0.2599
    192  O         36.1390    3.5990   30.7800 O.2   228  PRO228     -0.2715
    193  CB        38.0690    0.9990   31.2830 C.3   228  PRO228      0.0310
    194  CG        39.5220    1.2170   31.4940 C.3   228  PRO228      0.0237
    195  CD        39.7550    2.6620   31.1660 C.3   228  PRO228      0.0939
    196  N         35.2910    1.6770   29.9550 N.am  229  GLY229     -0.1955
    197  CA        33.9120    1.9770   30.2780 C.3   229  GLY229      0.1869
    198  C         33.8110    1.7810   31.7670 C.2   229  GLY229      0.2309
    199  O         34.4970    0.9100   32.3050 O.2   229  GLY229     -0.2863
@<TRIPOS>BOND
     1   177   176    2
     2   108   107    1
     3   108   179    1
     4   178   175    1
     5   178   179    1
     6   176   175    1
     7   107   104    1
     8    89    90    1
     9    92    91    2
    10   112   111    2
    11   175   174    1
    12   117   115   am
    13   174   172   am
    14   116   115    2
    15    93    90    1
    16    93    94    1
    17    90    91    1
    18   115   114    1
    19    91    97   am
    20   113   114    1
    21   113   110    1
    22   104   103    1
    23   104   105    1
    24   111   110    1
    25   111   118   am
    26   109   105   am
    27   109   110    1
    28   103    99   am
    29   105   106    2
    30   119   118    1
    31   119   120    1
    32   100    99    2
    33    99    98    1
    34   172   171    1
    35   172   173    2
    36   171   170    1
    37    97    98    1
    38   120   121    2
    39    94    96   ar
    40    94    95   ar
    41    98   101    1
    42   168   167    1
    43     1     2    1
    44   169   167    1
    45   167   166    2
    46   170   161   am
    47   101   102    1
    48     2     3    1
    49     2     5    1
    50   162   161    2
    51     3     4    2
    52     3     8   am
    53   161   160    1
    54     8     9    1
    55   166   165    1
    56    11    10    2
    57     7     5    1
    58    10     9    1
    59   183   182    2
    60     9    12    1
    61     5     6    1
    62   122   123    1
    63   185   184    1
    64   185   186    1
    65   165   164    1
    66   164   163    1
    67   184   181    1
    68   180   181    1
    69   160   163    1
    70   160   159    1
    71   182   181    1
    72   182   189   am
    73    12    13    1
    74   125   124    2
    75   159   157   am
    76   133   132    1
    77   127   126    1
    78   123   126    1
    79   123   124    1
    80   158   157    2
    81   187   186    1
    82   187   188    1
    83   134   132    1
    84    13    29    1
    85   196   197    1
    86   196   191   am
    87   190   189    1
    88   190   191    1
    89   190   193    1
    90   157   156    1
    91   189   195    1
    92   197   198    1
    93   191   192    2
    94   132   129    1
    95   156   155    1
    96   195   194    1
    97   193   194    1
    98   155   143   am
    99   198   199    2
   100   144   143    2
   101   143   142    1
   102    29    28    1
   103   129   130    1
   104   129   128    1
   105    23    21   ar
   106    23    22   ar
   107    72    71    1
   108    27    26    2
   109   142   141    1
   110   142   145    1
   111    28    25    1
   112   130   131    2
   113   130   135   am
   114    21    19   ar
   115    22    20   ar
   116   138   137    2
   117    25    26    1
   118    25    24    1
   119   135   136    1
   120   141   137   am
   121   137   136    1
   122    71    73    1
   123    71    70    1
   124    45    43   ar
   125   145   146    1
   126    62    61    2
   127   136   139    1
   128    17    16    2
   129    42    43    1
   130    42    39    1
   131    19    20   ar
   132    19    18    1
   133    24    16   am
   134   151   153   ar
   135   151   148   ar
   136    88    87   ar
   137    88    86   ar
   138    43    44   ar
   139    65    63    1
   140    16    15    1
   141    69    68    2
   142    70    67    1
   143    67    68    1
   144    67    66    1
   145    41    40    2
   146   146   148   ar
   147   146   147   ar
   148   153   154   ar
   149    40    39    1
   150    61    66   am
   151    61    60    1
   152   148   150   ar
   153    87    85   ar
   154    86    84   ar
   155    39    38    1
   156    68    74   am
   157   139   140    1
   158    18    15    1
   159    38    32   am
   160    15    14    1
   161    63    60    1
   162    63    64    1
   163    60    59    1
   164   147   149   ar
   165   154   152   ar
   166    30    31    1
   167   150   149   ar
   168   150   152   ar
   169    85    84   ar
   170    84    83    1
   171    74    75    1
   172    54    53    2
   173    32    31    1
   174    32    33    2
   175    36    34    1
   176    59    53   am
   177    75    76    1
   178    75    78    1
   179    31    34    1
   180    53    52    1
   181    76    79   am
   182    76    77    2
   183    83    80    1
   184    79    80    1
   185    34    35    1
   186    50    47    1
   187    80    81    1
   188    52    51    1
   189    52    55    1
   190    51    48   am
   191    35    37    1
   192    47    48    1
   193    47    46    1
   194    82    81    2
   195    48    49    2
   196    55    56    1
   197    56    57   ar
   198    56    58   ar
