@<TRIPOS>MOLECULE
tmp/2vivA00.pdb
 172 171 0 0 0
SMALL
GASTEIGER

@<TRIPOS>ATOM
      1  N         21.8230    9.1260   36.5390 N.3    46  HIS46      -0.1241
      2  CA        22.2240   10.2790   35.7310 C.3    46  HIS46       0.1621
      3  C         21.3190   10.4400   34.5080 C.2    46  HIS46       0.2264
      4  O         21.1960   11.5310   33.9460 O.2    46  HIS46      -0.2867
      5  CB        23.7130   10.2170   35.3590 C.3    46  HIS46       0.0745
      6  CG        24.0070    9.4970   34.0710 C.ar   46  HIS46       0.0817
      7  ND1       24.7840    8.3570   34.0210 N.ar   46  HIS46      -0.2268
      8  CD2       23.6870    9.7910   32.7860 C.ar   46  HIS46       0.1154
      9  CE1       24.9270    7.9760   32.7650 C.ar   46  HIS46       0.1986
     10  NE2       24.2990    8.8470   31.9940 N.ar   46  HIS46      -0.2212
     11  N         18.1020   12.6410   36.2720 N.3    49  ILE49      -0.1231
     12  CA        18.2420   13.6130   37.3510 C.3    49  ILE49       0.1692
     13  C         17.7430   15.0260   36.9740 C.2    49  ILE49       0.2592
     14  O         17.2400   15.7500   37.8220 O.2    49  ILE49      -0.2718
     15  CB        19.6990   13.6070   37.8860 C.3    49  ILE49       0.0266
     16  CG1       19.7950   14.3310   39.2390 C.3    49  ILE49       0.0019
     17  CG2       20.6580   14.1760   36.8320 C.3    49  ILE49       0.0020
     18  CD1       19.2230   13.5350   40.4280 C.3    49  ILE49       0.0001
     19  N         17.7720   15.3660   35.6870 N.am   50  ASP50      -0.1960
     20  CA        17.3460   16.6900   35.2340 C.3    50  ASP50       0.1840
     21  C         15.8550   16.7600   34.8840 C.2    50  ASP50       0.2622
     22  O         15.3010   17.8430   34.7080 O.2    50  ASP50      -0.2715
     23  CB        18.1640   17.1180   34.0030 C.3    50  ASP50       0.1450
     24  CG        19.5360   17.6670   34.3580 C.2    50  ASP50       0.3671
     25  OD1       19.7670   18.0910   35.5110 O.co2  50  ASP50      -0.2456
     26  OD2       20.3800   17.7220   33.4460 O.co2  50  ASP50      -0.2456
     27  N         15.2360   15.5960   34.7170 N.am   51  TYR51      -0.1974
     28  CA        13.8180   15.4760   34.3710 C.3    51  TYR51       0.1639
     29  C         13.2110   14.3660   35.2190 C.2    51  TYR51       0.2290
     30  O         12.8510   13.2980   34.7220 O.2    51  TYR51      -0.2864
     31  CB        13.6530   15.1630   32.8840 C.3    51  TYR51       0.0560
     32  CG        14.0920   16.3100   31.9950 C.ar   51  TYR51      -0.0198
     33  CD1       15.3860   16.3680   31.4820 C.ar   51  TYR51      -0.0009
     34  CD2       13.2420   17.3840   31.7530 C.ar   51  TYR51      -0.0009
     35  CE1       15.7980   17.4540   30.7140 C.ar   51  TYR51       0.0417
     36  CE2       13.6400   18.4520   30.9600 C.ar   51  TYR51       0.0417
     37  CZ        14.9120   18.4840   30.4520 C.ar   51  TYR51       0.1957
     38  OH        15.2970   19.5670   29.6870 O.3    51  TYR51      -0.2866
     39  N         23.2910   10.2160   44.7450 N.3    87  TYR87      -0.1241
     40  CA        23.8690   10.4040   43.4220 C.3    87  TYR87       0.1605
     41  C         24.6830   11.6960   43.3760 C.2    87  TYR87       0.2264
     42  O         24.2710   12.7250   43.9130 O.2    87  TYR87      -0.2867
     43  CB        22.8080   10.4020   42.3150 C.3    87  TYR87       0.0534
     44  CG        23.3450   10.9010   40.9870 C.ar   87  TYR87      -0.0201
     45  CD1       24.0490   10.0490   40.1360 C.ar   87  TYR87      -0.0009
     46  CD2       23.2190   12.2420   40.6220 C.ar   87  TYR87      -0.0009
     47  CE1       24.5920   10.5130   38.9460 C.ar   87  TYR87       0.0417
     48  CE2       23.7130   12.7040   39.4220 C.ar   87  TYR87       0.0417
     49  CZ        24.4200   11.8290   38.5930 C.ar   87  TYR87       0.1957
     50  OH        24.9850   12.2960   37.4400 O.3    87  TYR87      -0.2866
     51  N         30.6020    9.4580   37.9080 N.3    94  HIS94      -0.1241
     52  CA        29.2820    9.5420   38.5340 C.3    94  HIS94       0.1621
     53  C         29.2380    8.5420   39.6730 C.2    94  HIS94       0.2264
     54  O         29.6790    7.4070   39.5200 O.2    94  HIS94      -0.2867
     55  CB        28.1640    9.2390   37.5290 C.3    94  HIS94       0.0745
     56  CG        28.1310   10.1930   36.3790 C.ar   94  HIS94       0.0817
     57  ND1       27.0420   10.9990   36.1180 N.ar   94  HIS94      -0.2268
     58  CD2       29.1110   10.5960   35.5330 C.ar   94  HIS94       0.1154
     59  CE1       27.3210   11.7870   35.0950 C.ar   94  HIS94       0.1986
     60  NE2       28.5770   11.5810   34.7380 N.ar   94  HIS94      -0.2212
     61  N         21.6090    8.0390   17.3270 N.3   150  TYR150     -0.1241
     62  CA        21.7520    6.6410   17.7640 C.3   150  TYR150      0.1605
     63  C         21.4470    5.6420   16.6380 C.2   150  TYR150      0.2264
     64  O         20.6110    5.9060   15.7780 O.2   150  TYR150     -0.2867
     65  CB        20.7960    6.3790   18.9360 C.3   150  TYR150      0.0534
     66  CG        21.1240    7.1730   20.1780 C.ar  150  TYR150     -0.0201
     67  CD1       22.4540    7.3640   20.5730 C.ar  150  TYR150     -0.0009
     68  CD2       20.1240    7.7730   20.9340 C.ar  150  TYR150     -0.0009
     69  CE1       22.7600    8.0870   21.7020 C.ar  150  TYR150      0.0417
     70  CE2       20.4250    8.5110   22.0740 C.ar  150  TYR150      0.0417
     71  CZ        21.7550    8.6730   22.4400 C.ar  150  TYR150      0.1957
     72  OH        22.0730    9.3750   23.5680 O.3   150  TYR150     -0.2866
     73  N         33.3840   -0.8580   23.0310 N.3   192  ASP192     -0.1225
     74  CA        33.1200   -0.1420   24.2950 C.3   192  ASP192      0.1805
     75  C         31.6540    0.2810   24.2810 C.2   192  ASP192      0.2598
     76  O         31.0330    0.3250   23.2210 O.2   192  ASP192     -0.2718
     77  CB        33.9690    1.1420   24.3240 C.3   192  ASP192      0.1424
     78  CG        34.1430    1.7400   25.7430 C.2   192  ASP192      0.3668
     79  OD1       33.6880    1.1720   26.7670 O.co2 192  ASP192     -0.2456
     80  OD2       34.7810    2.8080   25.8230 O.co2 192  ASP192     -0.2456
     81  N         31.1740    0.7240   25.4420 N.am  193  SER193     -0.1938
     82  CA        29.9050    1.4450   25.5500 C.3   193  SER193      0.2055
     83  C         30.1700    2.8930   25.1050 C.2   193  SER193      0.2643
     84  O         31.3340    3.3290   25.0170 O.2   193  SER193     -0.2714
     85  CB        29.4470    1.4270   27.0000 C.3   193  SER193      0.2130
     86  OG        30.4350    1.9970   27.8470 O.3   193  SER193     -0.2179
     87  N         29.1120    3.6400   24.8170 N.am  194  CYS194     -0.1953
     88  CA        29.3080    5.0490   24.4530 C.3   194  CYS194      0.1843
     89  C         28.0790    5.8300   24.8850 C.2   194  CYS194      0.2625
     90  O         27.2000    5.2780   25.5200 O.2   194  CYS194     -0.2714
     91  CB        29.5970    5.1960   22.9390 C.3   194  CYS194      0.0997
     92  SG        30.3650    6.7770   22.4290 S.3   194  CYS194     -0.0797
     93  N         28.0430    7.1230   24.6060 N.am  195  GLN195     -0.1963
     94  CA        26.8600    7.9050   24.9550 C.3   195  GLN195      0.1733
     95  C         25.5950    7.2550   24.3950 C.2   195  GLN195      0.2616
     96  O         25.5490    6.8460   23.2150 O.2   195  GLN195     -0.2715
     97  CB        26.9780    9.3420   24.4110 C.3   195  GLN195      0.0408
     98  CG        25.8150   10.2440   24.8750 C.3   195  GLN195      0.0908
     99  CD        25.8870   11.6600   24.2920 C.2   195  GLN195      0.2608
    100  OE1       25.9360   11.8410   23.0850 O.2   195  GLN195     -0.2717
    101  NE2       25.8510   12.6570   25.1560 N.am  195  GLN195     -0.0878
    102  N         24.5860    7.1410   25.2490 N.am  196  GLY196     -0.1955
    103  CA        23.3350    6.5090   24.8790 C.3   196  GLY196      0.1869
    104  C         23.2290    5.1030   25.4510 C.2   196  GLY196      0.2309
    105  O         22.1480    4.5620   25.5330 O.2   196  GLY196     -0.2863
    106  N         24.2360    4.4000   28.4990 N.3   198  SER198     -0.1217
    107  CA        24.0350    4.5530   29.9500 C.3   198  SER198      0.1889
    108  C         22.7830    3.8400   30.4490 C.2   198  SER198      0.2288
    109  O         21.7730    3.8100   29.7490 O.2   198  SER198     -0.2866
    110  CB        23.9440    6.0520   30.3130 C.3   198  SER198      0.2089
    111  OG        25.2110    6.6680   30.1470 O.3   198  SER198     -0.2183
    112  N         25.8770    0.4210   32.8720 N.3   216  VAL216     -0.1231
    113  CA        26.6520    1.4310   32.1450 C.3   216  VAL216      0.1692
    114  C         26.5530    2.8000   32.8130 C.2   216  VAL216      0.2593
    115  O         25.4520    3.3230   33.0110 O.2   216  VAL216     -0.2718
    116  CB        26.2330    1.5160   30.6460 C.3   216  VAL216      0.0266
    117  CG1       27.1110    2.5750   29.8980 C.3   216  VAL216      0.0020
    118  CG2       26.3610    0.1380   29.9650 C.3   216  VAL216      0.0020
    119  N         27.6910    3.4110   33.1440 N.am  217  SER217     -0.1938
    120  CA        27.6200    4.6530   33.9310 C.3   217  SER217      0.2055
    121  C         28.4120    5.8100   33.3250 C.2   217  SER217      0.2643
    122  O         27.8650    6.8870   33.0820 O.2   217  SER217     -0.2714
    123  CB        28.0840    4.4180   35.3630 C.3   217  SER217      0.2130
    124  OG        28.0670    5.6460   36.0970 O.3   217  SER217     -0.2179
    125  N         29.7180    5.6150   33.1380 N.am  218  TRP218     -0.1959
    126  CA        30.5380    6.7290   32.6590 C.3   218  TRP218      0.1771
    127  C         31.8640    6.2740   32.0390 C.2   218  TRP218      0.2620
    128  O         32.1250    5.0830   31.9300 O.2   218  TRP218     -0.2715
    129  CB        30.7700    7.7500   33.7970 C.3   218  TRP218      0.0590
    130  CG        31.5850    7.2290   34.9490 C.ar  218  TRP218      0.0006
    131  CD1       31.1200    6.5750   36.0680 C.ar  218  TRP218      0.0946
    132  CD2       32.9990    7.4130   35.1530 C.ar  218  TRP218      0.0152
    133  NE1       32.1590    6.3390   36.9510 N.ar  218  TRP218     -0.2442
    134  CE2       33.3210    6.8300   36.4050 C.ar  218  TRP218      0.0810
    135  CE3       34.0180    8.0260   34.4090 C.ar  218  TRP218      0.0012
    136  CZ2       34.6250    6.8270   36.9190 C.ar  218  TRP218      0.0191
    137  CZ3       35.3300    7.9920   34.9120 C.ar  218  TRP218      0.0001
    138  CH2       35.6140    7.3820   36.1450 C.ar  218  TRP218      0.0015
    139  N         32.6080    7.2290   31.4820 N.am  219  GLY219     -0.1954
    140  CA        33.9840    7.0120   31.0690 C.3   219  GLY219      0.1869
    141  C         34.4390    8.2190   30.2630 C.2   219  GLY219      0.2309
    142  O         33.6560    9.1260   29.9910 O.2   219  GLY219     -0.2863
    143  N         35.4210    9.4560   26.7920 N.3   221  GLY221     -0.1210
    144  CA        35.3600    9.1460   25.3770 C.3   221  GLY221      0.1956
    145  C         34.8440    7.7360   25.1800 C.2   221  GLY221      0.2612
    146  O         34.2710    7.1390   26.1040 O.2   221  GLY221     -0.2717
    147  N         35.0100    7.2050   23.9750 N.am  222  CYS222     -0.1970
    148  CA        34.5270    5.8540   23.6750 C.3   222  CYS222      0.1712
    149  C         35.5940    5.0560   22.9460 C.2   222  CYS222      0.2296
    150  O         36.0490    5.4640   21.8850 O.2   222  CYS222     -0.2864
    151  CB        33.2650    5.9300   22.8290 C.3   222  CYS222      0.0983
    152  SG        31.9960    6.9590   23.6220 S.3   222  CYS222     -0.0798
    153  N         41.3340    4.1910   28.7550 N.3   227  LYS227     -0.1231
    154  CA        40.1300    4.7810   29.3510 C.3   227  LYS227      0.1678
    155  C         38.9530    3.8100   29.2920 C.2   227  LYS227      0.2434
    156  O         38.1300    3.8620   28.3870 O.2   227  LYS227     -0.2733
    157  CB        39.7830    6.1000   28.6550 C.3   227  LYS227      0.0284
    158  CG        40.9480    7.1090   28.6640 C.3   227  LYS227      0.0035
    159  CD        41.1930    7.7320   30.0710 C.3   227  LYS227      0.0206
    160  CE        42.4670    8.6410   30.0810 C.3   227  LYS227      0.1093
    161  NZ        42.6850    9.2540   31.4160 N.3   227  LYS227     -0.1314
    162  N         38.8650    2.9050   30.2710 N.am  228  PRO228     -0.2718
    163  CA        37.8250    1.8600   30.2290 C.3   228  PRO228      0.1535
    164  C         36.4060    2.4360   30.3780 C.2   228  PRO228      0.2599
    165  O         36.2360    3.5690   30.8010 O.2   228  PRO228     -0.2715
    166  CB        38.1550    1.0000   31.4550 C.3   228  PRO228      0.0310
    167  CG        39.6210    1.2070   31.6840 C.3   228  PRO228      0.0237
    168  CD        39.8790    2.6460   31.3100 C.3   228  PRO228      0.0939
    169  N         35.3960    1.6620   30.0030 N.am  229  GLY229     -0.1955
    170  CA        34.0360    2.0050   30.3850 C.3   229  GLY229      0.1869
    171  C         33.9200    1.7310   31.8780 C.2   229  GLY229      0.2309
    172  O         34.5650    0.7980   32.3980 O.2   229  GLY229     -0.2863
@<TRIPOS>BOND
     1    64    63    2
     2    63    62    1
     3    61    62    1
     4    62    65    1
     5    65    66    1
     6    66    67   ar
     7    66    68   ar
     8    67    69   ar
     9    68    70   ar
    10    69    71   ar
    11   150   149    2
    12    70    71   ar
    13    92    91    1
    14    92   152    1
    15    71    72    1
    16   151   152    1
    17   151   148    1
    18    91    88    1
    19   149   148    1
    20    73    74    1
    21   100    99    2
    22    96    95    2
    23    76    75    2
    24   148   147    1
    25   147   145   am
    26    75    74    1
    27    75    81   am
    28    99    98    1
    29    99   101   am
    30    74    77    1
    31    77    78    1
    32    95    94    1
    33    95   102   am
    34    97    98    1
    35    97    94    1
    36    88    87    1
    37    88    89    1
    38    93    89   am
    39    93    94    1
    40    87    83   am
    41   103   102    1
    42   103   104    1
    43    89    90    2
    44    84    83    2
    45    83    82    1
    46   145   144    1
    47   145   146    2
    48   144   143    1
    49    81    82    1
    50   104   105    2
    51    82    85    1
    52    78    80   ar
    53    78    79   ar
    54    85    86    1
    55   156   155    2
    56   106   107    1
    57   157   158    1
    58   157   154    1
    59   158   159    1
    60   153   154    1
    61   155   154    1
    62   155   162   am
    63    38    37    1
    64   109   108    2
    65   117   116    1
    66   107   110    1
    67   107   108    1
    68   118   116    1
    69   142   141    2
    70   169   164   am
    71   169   170    1
    72   159   160    1
    73   160   161    1
    74   111   110    1
    75   163   162    1
    76   163   164    1
    77   163   166    1
    78   141   140    1
    79   162   168    1
    80   164   165    2
    81   170   171    1
    82    37    35   ar
    83    37    36   ar
    84   116   113    1
    85    35    33   ar
    86    36    34   ar
    87   140   139    1
    88   168   167    1
    89   166   167    1
    90    33    32   ar
    91   139   127   am
    92    34    32   ar
    93   171   172    2
    94   128   127    2
    95    10     9   ar
    96    10     8   ar
    97    32    31    1
    98   127   126    1
    99   113   114    1
   100   113   112    1
   101   126   125    1
   102   126   129    1
   103     9     7   ar
   104     8     6   ar
   105   114   115    2
   106   114   119   am
   107    31    28    1
   108   122   121    2
   109   125   121   am
   110   119   120    1
   111   121   120    1
   112    26    24   ar
   113   129   130    1
   114   120   123    1
   115     4     3    2
   116    23    24    1
   117    23    20    1
   118     7     6   ar
   119     6     5    1
   120    24    25   ar
   121    28    27    1
   122    28    29    1
   123   135   137   ar
   124   135   132   ar
   125     3     2    1
   126    22    21    2
   127    27    21   am
   128    30    29    2
   129    60    59   ar
   130    60    58   ar
   131    21    20    1
   132   137   138   ar
   133   130   132   ar
   134   130   131   ar
   135    59    57   ar
   136   132   134   ar
   137    20    19    1
   138     5     2    1
   139   123   124    1
   140    58    56   ar
   141    19    13   am
   142     2     1    1
   143   131   133   ar
   144    57    56   ar
   145   138   136   ar
   146    11    12    1
   147    56    55    1
   148   134   136   ar
   149   134   133   ar
   150    17    15    1
   151    13    12    1
   152    13    14    2
   153    12    15    1
   154    50    49    1
   155    55    52    1
   156    15    16    1
   157    51    52    1
   158    52    53    1
   159    49    47   ar
   160    49    48   ar
   161    47    45   ar
   162    16    18    1
   163    48    46   ar
   164    54    53    2
   165    45    44   ar
   166    46    44   ar
   167    44    43    1
   168    43    40    1
   169    41    40    1
   170    41    42    2
   171    40    39    1
