@<TRIPOS>MOLECULE
tmp/2vj0A01.pdb
 168 164 0 0 0
SMALL
GASTEIGER

@<TRIPOS>ATOM
      1  N         43.3210   11.5820   25.9190 N.3   144  PHE144     -0.1227
      2  CA        42.1020   10.8270   26.1580 C.3   144  PHE144      0.1736
      3  C         41.5180   11.2050   27.5030 C.2   144  PHE144      0.2595
      4  O         40.3350   11.4990   27.6220 O.2   144  PHE144     -0.2718
      5  CB        42.3260    9.3080   26.1150 C.3   144  PHE144      0.0547
      6  CG        41.0840    8.5340   26.4400 C.ar  144  PHE144     -0.0202
      7  CD1       40.2150    8.1680   25.4190 C.ar  144  PHE144     -0.0042
      8  CD2       40.7500    8.2380   27.7520 C.ar  144  PHE144     -0.0042
      9  CE1       39.0730    7.4640   25.6960 C.ar  144  PHE144     -0.0003
     10  CE2       39.5900    7.5560   28.0430 C.ar  144  PHE144     -0.0003
     11  CZ        38.7420    7.1720   27.0030 C.ar  144  PHE144     -0.0000
     12  N         42.3530   11.1810   28.5390 N.am  145  PHE145     -0.1976
     13  CA        41.8410   11.4460   29.8760 C.3   145  PHE145      0.1639
     14  C         41.3590   12.8710   30.0600 C.2   145  PHE145      0.2290
     15  O         40.3660   13.1030   30.7280 O.2   145  PHE145     -0.2864
     16  CB        42.8500   11.0310   30.9360 C.3   145  PHE145      0.0560
     17  CG        42.9150    9.5360   31.1200 C.ar  145  PHE145     -0.0200
     18  CD1       41.7790    8.8260   31.4880 C.ar  145  PHE145     -0.0042
     19  CD2       44.0890    8.8460   30.9160 C.ar  145  PHE145     -0.0042
     20  CE1       41.8230    7.4480   31.6460 C.ar  145  PHE145     -0.0003
     21  CE2       44.1380    7.4760   31.0890 C.ar  145  PHE145     -0.0003
     22  CZ        43.0120    6.7800   31.4440 C.ar  145  PHE145     -0.0000
     23  N         37.9670   12.7760   28.3560 N.3   148  TRP148     -0.1241
     24  CA        37.0310   12.0000   29.1760 C.3   148  TRP148      0.1605
     25  C         36.4920   12.8830   30.3080 C.2   148  TRP148      0.2264
     26  O         35.2800   12.9620   30.5380 O.2   148  TRP148     -0.2867
     27  CB        37.7490   10.7830   29.7260 C.3   148  TRP148      0.0550
     28  CG        36.9010    9.8100   30.4690 C.ar  148  TRP148      0.0003
     29  CD1       36.7490    9.7300   31.8240 C.ar  148  TRP148      0.0946
     30  CD2       36.1200    8.7370   29.9150 C.ar  148  TRP148      0.0152
     31  NE1       35.9150    8.6850   32.1550 N.ar  148  TRP148     -0.2442
     32  CE2       35.5050    8.0670   31.0040 C.ar  148  TRP148      0.0810
     33  CE3       35.8560    8.2980   28.6120 C.ar  148  TRP148      0.0012
     34  CZ2       34.6820    6.9670   30.8270 C.ar  148  TRP148      0.0191
     35  CZ3       35.0180    7.2000   28.4400 C.ar  148  TRP148      0.0001
     36  CH2       34.4420    6.5610   29.5410 C.ar  148  TRP148      0.0015
     37  N         25.9430    3.8800   30.1750 N.3   159  GLN159     -0.1245
     38  CA        26.5420    2.5800   30.4210 C.3   159  GLN159      0.1566
     39  C         25.5560    1.4280   30.2260 C.2   159  GLN159      0.2260
     40  O         24.3440    1.5670   30.3870 O.2   159  GLN159     -0.2867
     41  CB        27.1210    2.5090   31.8410 C.3   159  GLN159      0.0367
     42  CG        28.2930    3.3890   32.0550 C.3   159  GLN159      0.0905
     43  CD        28.7780    3.3310   33.5030 C.2   159  GLN159      0.2608
     44  OE1       27.9820    3.5250   34.4360 O.2   159  GLN159     -0.2717
     45  NE2       30.0530    3.0330   33.6990 N.am  159  GLN159     -0.0878
     46  N         25.5560   -3.0250   31.0400 N.3   161  ILE161     -0.1245
     47  CA        26.1840   -4.2370   31.5250 C.3   161  ILE161      0.1561
     48  C         25.4290   -5.3860   30.8510 C.2   161  ILE161      0.2260
     49  O         24.1990   -5.4370   30.8590 O.2   161  ILE161     -0.2867
     50  CB        26.0710   -4.3400   33.0500 C.3   161  ILE161      0.0252
     51  CG1       26.8480   -3.2100   33.7200 C.3   161  ILE161      0.0019
     52  CG2       26.5610   -5.7270   33.5260 C.3   161  ILE161      0.0019
     53  CD1       26.6960   -3.1920   35.2430 C.3   161  ILE161      0.0001
     54  N         43.7240    2.6330   29.5030 N.3   189  ASP189     -0.1225
     55  CA        43.2950    1.9970   30.7380 C.3   189  ASP189      0.1790
     56  C         44.4700    1.1570   31.2290 C.2   189  ASP189      0.2440
     57  O         44.9800    0.3280   30.4870 O.2   189  ASP189     -0.2733
     58  CB        42.0670    1.1120   30.4610 C.3   189  ASP189      0.1423
     59  CG        41.4290    0.5770   31.7150 C.2   189  ASP189      0.3668
     60  OD1       42.1620    0.2140   32.6690 O.co2 189  ASP189     -0.2456
     61  OD2       40.1840    0.5010   31.7540 O.co2 189  ASP189     -0.2456
     62  N         44.9260    1.3810   32.4740 N.am  190  PRO190     -0.2718
     63  CA        46.0830    0.6400   32.9490 C.3   190  PRO190      0.1535
     64  C         45.8290   -0.8530   33.1040 C.2   190  PRO190      0.2598
     65  O         46.7850   -1.6270   33.2310 O.2   190  PRO190     -0.2715
     66  CB        46.3750    1.2840   34.3070 C.3   190  PRO190      0.0310
     67  CG        45.1250    1.9160   34.7180 C.3   190  PRO190      0.0237
     68  CD        44.4300    2.3400   33.4730 C.3   190  PRO190      0.0939
     69  N         44.5600   -1.2620   33.1140 N.am  191  ASN191     -0.1973
     70  CA        44.2190   -2.6820   33.0800 C.3   191  ASN191      0.1688
     71  C         44.2540   -3.1640   31.6340 C.2   191  ASN191      0.2292
     72  O         43.4180   -2.7460   30.8360 O.2   191  ASN191     -0.2864
     73  CB        42.8350   -2.8950   33.6870 C.3   191  ASN191      0.1181
     74  CG        42.4260   -4.3620   33.7440 C.2   191  ASN191      0.2629
     75  OD1       43.0200   -5.2250   33.0990 O.2   191  ASN191     -0.2716
     76  ND2       41.3940   -4.6400   34.5160 N.am  191  ASN191     -0.0877
     77  N         41.1700   -4.3230   29.5130 N.3   194  ASN194     -0.1240
     78  CA        40.1160   -3.4250   29.0450 C.3   194  ASN194      0.1653
     79  C         40.4420   -2.8240   27.6960 C.2   194  ASN194      0.2266
     80  O         41.5920   -2.8260   27.2560 O.2   194  ASN194     -0.2867
     81  CB        39.8370   -2.3380   30.0820 C.3   194  ASN194      0.1155
     82  CG        39.2990   -2.9020   31.3890 C.2   194  ASN194      0.2627
     83  OD1       38.8100   -4.0310   31.4320 O.2   194  ASN194     -0.2716
     84  ND2       39.4010   -2.1070   32.4810 N.am  194  ASN194     -0.0877
     85  N         39.7690    0.6050   25.1130 N.3   196  VAL196     -0.1245
     86  CA        39.4290    2.0160   25.1250 C.3   196  VAL196      0.1561
     87  C         39.4300    2.4980   23.6810 C.2   196  VAL196      0.2260
     88  O         40.2900    2.1270   22.8990 O.2   196  VAL196     -0.2867
     89  CB        40.4310    2.8420   25.9470 C.3   196  VAL196      0.0252
     90  CG1       40.0590    4.3080   25.9020 C.3   196  VAL196      0.0019
     91  CG2       40.4800    2.3600   27.4220 C.3   196  VAL196      0.0019
     92  N         34.7470    2.8420   26.6650 N.3   213  ARG213     -0.1245
     93  CA        35.5400    1.9160   27.4560 C.3   213  ARG213      0.1563
     94  C         34.7530    0.6350   27.5630 C.2   213  ARG213      0.2260
     95  O         33.5800    0.6410   27.9540 O.2   213  ARG213     -0.2867
     96  CB        35.7950    2.5020   28.8500 C.3   213  ARG213      0.0307
     97  CG        36.6870    1.7080   29.7380 C.3   213  ARG213      0.0489
     98  CD        36.4480    2.1160   31.1490 C.3   213  ARG213      0.2205
     99  NE        37.4590    1.5900   32.0600 N.pl3 213  ARG213     -0.0865
    100  CZ        37.3430    1.6000   33.3810 C.cat 213  ARG213      0.5346
    101  NH1       36.2480    2.0790   33.9790 N.pl3 213  ARG213      0.1354
    102  NH2       38.3260    1.1200   34.1090 N.pl3 213  ARG213      0.1354
    103  N         34.9010   -3.1230   29.3350 N.3   215  GLU215     -0.1231
    104  CA        35.5280   -3.8310   30.4390 C.3   215  GLU215      0.1684
    105  C         34.9720   -5.2550   30.4830 C.2   215  GLU215      0.2434
    106  O         33.8100   -5.4530   30.8410 O.2   215  GLU215     -0.2733
    107  CB        35.2120   -3.1320   31.7560 C.3   215  GLU215      0.0402
    108  CG        35.6490   -1.6920   31.8610 C.3   215  GLU215      0.1161
    109  CD        35.1320   -1.0610   33.1340 C.2   215  GLU215      0.3649
    110  OE1       34.1270   -0.3380   33.0770 O.co2 215  GLU215     -0.2457
    111  OE2       35.7310   -1.3390   34.2080 O.co2 215  GLU215     -0.2457
    112  N         35.7730   -6.2420   30.0690 N.am  216  PRO216     -0.2718
    113  CA        35.3360   -7.6240   30.1730 C.3   216  PRO216      0.1535
    114  C         35.5860   -8.2140   31.5480 C.2   216  PRO216      0.2598
    115  O         36.6070   -7.9050   32.1800 O.2   216  PRO216     -0.2715
    116  CB        36.2120   -8.3270   29.1360 C.3   216  PRO216      0.0310
    117  CG        37.4860   -7.5910   29.2040 C.3   216  PRO216      0.0237
    118  CD        37.0970   -6.1510   29.4340 C.3   216  PRO216      0.0939
    119  N         34.6730   -9.0640   31.9990 N.am  217  ASN217     -0.1973
    120  CA        34.9370   -9.9260   33.1260 C.3   217  ASN217      0.1688
    121  C         34.8140  -11.3500   32.5810 C.2   217  ASN217      0.2292
    122  O         33.7110  -11.8380   32.3450 O.2   217  ASN217     -0.2864
    123  CB        33.9360   -9.6770   34.2420 C.3   217  ASN217      0.1181
    124  CG        34.1930  -10.5470   35.4520 C.2   217  ASN217      0.2629
    125  OD1       34.7150  -11.6570   35.3450 O.2   217  ASN217     -0.2716
    126  ND2       33.7830  -10.0560   36.6250 N.am  217  ASN217     -0.0877
    127  N         30.6360  -11.4450   31.3440 N.3   222  MET222     -0.1230
    128  CA        29.8870  -10.2060   31.1940 C.3   222  MET222      0.1702
    129  C         30.8330   -9.0510   30.8750 C.2   222  MET222      0.2592
    130  O         32.0370   -9.0980   31.1960 O.2   222  MET222     -0.2718
    131  CB        29.0900   -9.9100   32.4570 C.3   222  MET222      0.0401
    132  CG        27.8980  -10.8580   32.6070 C.3   222  MET222      0.0596
    133  SD        26.9080  -10.4900   34.0270 S.3   222  MET222     -0.1393
    134  CE        27.9980  -11.0810   35.2900 C.3   222  MET222      0.0692
    135  N         30.2490   -8.0230   30.2660 N.am  223  TYR223     -0.1962
    136  CA        30.9370   -6.7790   29.9500 C.3   223  TYR223      0.1771
    137  C         30.2530   -5.5800   30.5970 C.2   223  TYR223      0.2619
    138  O         29.0540   -5.6000   30.8100 O.2   223  TYR223     -0.2715
    139  CB        30.8560   -6.5310   28.4610 C.3   223  TYR223      0.0574
    140  CG        31.6760   -7.4250   27.5730 C.ar  223  TYR223     -0.0198
    141  CD1       32.9970   -7.1030   27.2700 C.ar  223  TYR223     -0.0009
    142  CD2       31.1090   -8.5250   26.9460 C.ar  223  TYR223     -0.0009
    143  CE1       33.7560   -7.9110   26.4210 C.ar  223  TYR223      0.0417
    144  CE2       31.8670   -9.3310   26.0770 C.ar  223  TYR223      0.0417
    145  CZ        33.1850   -9.0100   25.8170 C.ar  223  TYR223      0.1957
    146  OH        33.9310   -9.7920   24.9340 O.3   223  TYR223     -0.2866
    147  N         31.0170   -4.5180   30.8430 N.am  224  ARG224     -0.1977
    148  CA        30.4380   -3.2040   31.0840 C.3   224  ARG224      0.1597
    149  C         30.9770   -2.3010   29.9860 C.2   224  ARG224      0.2287
    150  O         32.1850   -2.2660   29.7470 O.2   224  ARG224     -0.2864
    151  CB        30.8350   -2.6520   32.4490 C.3   224  ARG224      0.0334
    152  CG        30.1480   -1.3370   32.7520 C.3   224  ARG224      0.0492
    153  CD        30.3120   -0.8580   34.1830 C.3   224  ARG224      0.2205
    154  NE        31.6030   -0.2400   34.3820 N.pl3 224  ARG224     -0.0865
    155  CZ        31.9480    0.4690   35.4640 C.cat 224  ARG224      0.5346
    156  NH1       31.0810    0.6920   36.4490 N.pl3 224  ARG224      0.1354
    157  NH2       33.1670    0.9780   35.5270 N.pl3 224  ARG224      0.1354
    158  N         31.0130    8.0100   26.4750 N.3   228  ARG228     -0.1245
    159  CA        30.8520    9.4390   26.7500 C.3   228  ARG228      0.1563
    160  C         30.9180   10.2150   25.4520 C.2   228  ARG228      0.2260
    161  O         31.8140   10.0020   24.6400 O.2   228  ARG228     -0.2867
    162  CB        31.9230    9.9560   27.7020 C.3   228  ARG228      0.0307
    163  CG        31.7290    9.4750   29.1110 C.3   228  ARG228      0.0489
    164  CD        32.6950   10.1220   30.0450 C.3   228  ARG228      0.2205
    165  NE        32.4150    9.7300   31.4230 N.pl3 228  ARG228     -0.0865
    166  CZ        32.9410   10.3170   32.4990 C.cat 228  ARG228      0.5346
    167  NH1       33.8000   11.3310   32.3660 N.pl3 228  ARG228      0.1354
    168  NH2       32.6020    9.9010   33.7210 N.pl3 228  ARG228      0.1354
@<TRIPOS>BOND
     1    88    87    2
     2    87    86    1
     3   161   160    2
     4   146   145    1
     5    85    86    1
     6    86    89    1
     7     7     9   ar
     8     7     6   ar
     9   160   159    1
    10     9    11   ar
    11   145   144   ar
    12   145   143   ar
    13    90    89    1
    14     1     2    1
    15    89    91    1
    16   144   142   ar
    17     5     2    1
    18     5     6    1
    19     2     3    1
    20   143   141   ar
    21     6     8   ar
    22   158   159    1
    23    92    93    1
    24   159   162    1
    25   142   140   ar
    26    11    10   ar
    27    80    79    2
    28   141   140   ar
    29    93    94    1
    30    93    96    1
    31     3     4    2
    32     3    12   am
    33    94    95    2
    34   140   139    1
    35    79    78    1
    36   162   163    1
    37     8    10   ar
    38    23    24    1
    39    35    33   ar
    40    35    36   ar
    41   139   136    1
    42    12    13    1
    43    33    30   ar
    44    96    97    1
    45    78    77    1
    46    78    81    1
    47   163   164    1
    48   116   117    1
    49   116   113    1
    50    24    27    1
    51    24    25    1
    52   117   118    1
    53   103   104    1
    54   118   112    1
    55    54    55    1
    56    36    34   ar
    57    27    28    1
    58    97    98    1
    59   150   149    2
    60    13    14    1
    61    13    16    1
    62    30    28   ar
    63    30    32   ar
    64   136   135    1
    65   136   137    1
    66   149   148    1
    67   164   165    1
    68    14    15    2
    69   112   113    1
    70   112   105   am
    71    81    82    1
    72   113   114    1
    73    37    38    1
    74    39    40    2
    75    39    38    1
    76   135   129   am
    77    25    26    2
    78    38    41    1
    79   104   105    1
    80   104   107    1
    81    58    55    1
    82    58    59    1
    83    28    29   ar
    84   105   106    2
    85    57    56    2
    86   137   138    2
    87   137   147   am
    88    55    56    1
    89    34    32   ar
    90    72    71    2
    91   147   148    1
    92    48    49    2
    93    48    47    1
    94   129   128    1
    95   129   130    2
    96    19    21   ar
    97    19    17   ar
    98    16    17    1
    99    32    31   ar
   100    46    47    1
   101   148   151    1
   102    21    22   ar
   103    17    18   ar
   104    98    99    1
   105   128   127    1
   106   128   131    1
   107    56    62   am
   108    82    83    2
   109    82    84   am
   110   165   166    2
   111    22    20   ar
   112    18    20   ar
   113    47    50    1
   114   114   119   am
   115   114   115    2
   116    71    70    1
   117    59    61   ar
   118    59    60   ar
   119   107   108    1
   120    29    31   ar
   121    41    42    1
   122   108   109    1
   123   119   120    1
   124    42    43    1
   125    99   100    2
   126   122   121    2
   127   167   166    1
   128   151   152    1
   129   131   132    1
   130    62    63    1
   131    62    68    1
   132   166   168    1
   133   121   120    1
   134   132   133    1
   135   152   153    1
   136    63    64    1
   137    63    66    1
   138    50    52    1
   139    50    51    1
   140   110   109   ar
   141    70    69    1
   142    70    73    1
   143    75    74    2
   144    64    69   am
   145    64    65    2
   146   120   123    1
   147   109   111   ar
   148   100   101    1
   149   100   102    1
   150    68    67    1
   151    43    45   am
   152    43    44    2
   153    73    74    1
   154    51    53    1
   155    74    76   am
   156   133   134    1
   157   153   154    1
   158   123   124    1
   159    66    67    1
   160   154   155    2
   161   125   124    2
   162   124   126   am
   163   155   157    1
   164   155   156    1
