@<TRIPOS>MOLECULE
tmp/2vj1B00.pdb
 88 86 0 0 0
SMALL
GASTEIGER

@<TRIPOS>ATOM
      1  N        -21.3330   -6.9110   47.3640 N.3    25  THR25      -0.1203
      2  CA       -21.0430   -5.6170   46.7540 C.3    25  THR25       0.1994
      3  C        -21.3030   -5.6440   45.2450 C.2    25  THR25       0.2617
      4  O        -20.9080   -6.5760   44.5380 O.2    25  THR25      -0.2717
      5  CB       -19.6000   -5.1470   47.0560 C.3    25  THR25       0.1784
      6  OG1      -19.4860   -4.9000   48.4540 O.3    25  THR25      -0.2211
      7  CG2      -19.3380   -3.8560   46.3970 C.3    25  THR25       0.0376
      8  N        -21.9960   -4.6320   44.7480 N.am   26  LEU26      -0.1979
      9  CA       -22.1260   -4.4860   43.2910 C.3    26  LEU26       0.1596
     10  C        -22.2500   -3.0270   42.8610 C.2    26  LEU26       0.2287
     11  O        -22.0840   -2.1150   43.6600 O.2    26  LEU26      -0.2864
     12  CB       -23.2770   -5.3610   42.7540 C.3    26  LEU26       0.0297
     13  CG       -24.4900   -5.5730   43.6440 C.3    26  LEU26       0.0022
     14  CD1      -25.4010   -4.3630   43.6060 C.3    26  LEU26       0.0001
     15  CD2      -25.2240   -6.8500   43.2540 C.3    26  LEU26       0.0001
     16  N        -30.9710   -7.9970   44.2340 N.3    40  HIS40      -0.1241
     17  CA       -30.3060   -9.1950   44.7950 C.3    40  HIS40       0.1621
     18  C        -29.0450   -8.8810   45.5990 C.2    40  HIS40       0.2264
     19  O        -28.4390   -9.7770   46.2140 O.2    40  HIS40      -0.2867
     20  CB       -30.0570  -10.2780   43.7300 C.3    40  HIS40       0.0745
     21  CG       -28.9110   -9.9900   42.8050 C.ar   40  HIS40       0.0817
     22  ND1      -29.0900   -9.6460   41.4800 N.ar   40  HIS40      -0.2268
     23  CD2      -27.5700  -10.0060   43.0120 C.ar   40  HIS40       0.1154
     24  CE1      -27.9100   -9.4640   40.9120 C.ar   40  HIS40       0.1986
     25  NE2      -26.9720   -9.6810   41.8210 N.ar   40  HIS40      -0.2212
     26  N        -19.5160   -9.5890   31.1930 N.3   140  LEU140     -0.1231
     27  CA       -20.2040   -8.8730   32.2780 C.3   140  LEU140      0.1693
     28  C        -20.1280   -9.6090   33.6220 C.2   140  LEU140      0.2592
     29  O        -20.8520   -9.2860   34.5690 O.2   140  LEU140     -0.2718
     30  CB       -21.6580   -8.5430   31.9030 C.3   140  LEU140      0.0284
     31  CG       -21.9900   -7.0580   31.8190 C.3   140  LEU140      0.0019
     32  CD1      -20.8360   -6.2780   31.2150 C.3   140  LEU140      0.0001
     33  CD2      -23.3330   -6.8430   31.0450 C.3   140  LEU140      0.0001
     34  N        -19.2310  -10.5840   33.6840 N.am  141  ASN141     -0.1960
     35  CA       -18.9070  -11.3180   34.9050 C.3   141  ASN141      0.1819
     36  C        -18.2190  -10.4360   35.9560 C.2   141  ASN141      0.2621
     37  O        -17.0840   -9.9740   35.7310 O.2   141  ASN141     -0.2715
     38  CB       -17.9930  -12.5010   34.5660 C.3   141  ASN141      0.1195
     39  CG       -18.1420  -12.9590   33.1200 C.2   141  ASN141      0.2630
     40  OD1      -18.8800  -13.9140   32.8410 O.2   141  ASN141     -0.2716
     41  ND2      -17.4530  -12.2680   32.1870 N.am  141  ASN141     -0.0877
     42  N        -18.9020  -10.2400   37.0970 N.am  142  GLY142     -0.1954
     43  CA       -18.4160   -9.3960   38.2260 C.3   142  GLY142      0.1869
     44  C        -19.0540   -8.0050   38.2300 C.2   142  GLY142      0.2309
     45  O        -18.8510   -7.1900   39.1310 O.2   142  GLY142     -0.2863
     46  N        -22.4120   -6.9050   37.9590 N.3   144  CYS144     -0.1235
     47  CA       -23.8220   -6.6900   38.2980 C.3   144  CYS144      0.1677
     48  C        -24.0760   -5.2300   38.6060 C.2   144  CYS144      0.2270
     49  O        -23.2690   -4.5800   39.3140 O.2   144  CYS144     -0.2867
     50  CB       -24.2870   -7.5420   39.4680 C.3   144  CYS144      0.0956
     51  SG       -24.8590   -9.1180   38.9260 S.3   144  CYS144     -0.0801
     52  N        -27.4920   -4.8350   34.2930 N.3   162  HIS162     -0.1226
     53  CA       -27.0560   -6.1930   34.3690 C.3   162  HIS162      0.1752
     54  C        -27.4450   -6.8150   35.7220 C.2   162  HIS162      0.2596
     55  O        -27.1670   -6.2320   36.7860 O.2   162  HIS162     -0.2718
     56  CB       -25.5360   -6.2740   34.1680 C.3   162  HIS162      0.0759
     57  CG       -25.0070   -7.6740   34.2350 C.ar  162  HIS162      0.0818
     58  ND1      -25.5080   -8.6940   33.4560 N.ar  162  HIS162     -0.2268
     59  CD2      -24.0630   -8.2330   35.0130 C.ar  162  HIS162      0.1154
     60  CE1      -24.8730   -9.8160   33.7410 C.ar  162  HIS162      0.1986
     61  NE2      -23.9870   -9.5610   34.6810 N.ar  162  HIS162     -0.2212
     62  N        -28.0120   -8.0270   35.6730 N.am  163  HIS163     -0.1961
     63  CA       -28.3760   -8.7770   36.8890 C.3   163  HIS163      0.1787
     64  C        -27.7050  -10.1630   37.0750 C.2   163  HIS163      0.2620
     65  O        -27.2100  -10.4490   38.1270 O.2   163  HIS163     -0.2715
     66  CB       -29.8990   -8.9590   36.9670 C.3   163  HIS163      0.0785
     67  CG       -30.6500   -7.7150   37.3330 C.ar  163  HIS163      0.0821
     68  ND1      -31.4910   -7.6540   38.4220 N.ar  163  HIS163     -0.2267
     69  CD2      -30.6900   -6.4870   36.7610 C.ar  163  HIS163      0.1154
     70  CE1      -32.0050   -6.4410   38.5120 C.ar  163  HIS163      0.1986
     71  NE2      -31.5400   -5.7160   37.5140 N.ar  163  HIS163     -0.2212
     72  N        -27.7470  -11.0040   36.0370 N.am  164  MET164     -0.1963
     73  CA       -27.5010  -12.4620   36.1380 C.3   164  MET164      0.1736
     74  C        -26.5920  -12.9830   35.0200 C.2   164  MET164      0.2616
     75  O        -26.5580  -12.4170   33.9270 O.2   164  MET164     -0.2715
     76  CB       -28.8380  -13.2560   36.0530 C.3   164  MET164      0.0427
     77  CG       -29.9160  -12.9020   37.0790 C.3   164  MET164      0.0599
     78  SD       -29.6950  -13.5870   38.7490 S.3   164  MET164     -0.1393
     79  CE       -29.8850  -12.1160   39.7200 C.3   164  MET164      0.0692
     80  N        -25.8830  -14.0760   35.2890 N.am  165  GLU165     -0.1977
     81  CA       -25.2340  -14.8670   34.2450 C.3   165  GLU165      0.1602
     82  C        -26.0250  -16.1520   34.0270 C.2   165  GLU165      0.2287
     83  O        -26.2440  -16.9060   34.9710 O.2   165  GLU165     -0.2864
     84  CB       -23.8090  -15.2200   34.6630 C.3   165  GLU165      0.0415
     85  CG       -22.7590  -14.2100   34.2300 C.3   165  GLU165      0.1163
     86  CD       -21.9350  -14.6620   33.0260 C.2   165  GLU165      0.3649
     87  OE1      -21.8010  -15.8890   32.7810 O.co2 165  GLU165     -0.2457
     88  OE2      -21.3930  -13.7710   32.3350 O.co2 165  GLU165     -0.2457
@<TRIPOS>BOND
     1    33    31    1
     2    26    27    1
     3    32    31    1
     4    31    30    1
     5    30    27    1
     6    41    39   am
     7    27    28    1
     8    88    86   ar
     9    87    86   ar
    10    40    39    2
    11    86    85    1
    12    39    38    1
    13    58    60   ar
    14    58    57   ar
    15    28    34   am
    16    28    29    2
    17    34    35    1
    18    60    61   ar
    19    75    74    2
    20    82    81    1
    21    82    83    2
    22    56    57    1
    23    56    53    1
    24    85    84    1
    25    57    59   ar
    26    81    84    1
    27    81    80    1
    28    52    53    1
    29    53    54    1
    30    38    35    1
    31    61    59   ar
    32    35    36    1
    33    74    80   am
    34    74    73    1
    35    62    54   am
    36    62    63    1
    37    54    55    2
    38    37    36    2
    39    36    42   am
    40    72    73    1
    41    72    64   am
    42    76    73    1
    43    76    77    1
    44    69    67   ar
    45    69    71   ar
    46    63    66    1
    47    63    64    1
    48    66    67    1
    49    64    65    2
    50    77    78    1
    51    42    43    1
    52    67    68   ar
    53    71    70   ar
    54    46    47    1
    55    43    44    1
    56    44    45    2
    57    47    48    1
    58    47    50    1
    59    68    70   ar
    60    48    49    2
    61    78    79    1
    62    51    50    1
    63    24    22   ar
    64    24    25   ar
    65    22    21   ar
    66    25    23   ar
    67    12     9    1
    68    12    13    1
    69    21    23   ar
    70    21    20    1
    71    10     9    1
    72    10    11    2
    73    15    13    1
    74     9     8    1
    75    14    13    1
    76    20    17    1
    77    16    17    1
    78     4     3    2
    79     8     3   am
    80    17    18    1
    81     3     2    1
    82    18    19    2
    83     7     5    1
    84     2     5    1
    85     2     1    1
    86     5     6    1
