@<TRIPOS>MOLECULE
tmp/2vj8A00.pdb
 202 196 0 0 0
SMALL
GASTEIGER

@<TRIPOS>ATOM
      1  N          6.7120   48.6640   59.5380 N.3   134  GLN134     -0.1245
      2  CA         7.3360   47.6950   60.4200 C.3   134  GLN134      0.1566
      3  C          6.1970   46.7500   60.7630 C.2   134  GLN134      0.2260
      4  O          5.3930   47.0080   61.6520 O.2   134  GLN134     -0.2867
      5  CB         7.8910   48.3580   61.6870 C.3   134  GLN134      0.0367
      6  CG         8.3720   47.3220   62.7410 C.3   134  GLN134      0.0905
      7  CD         9.4110   46.3700   62.1760 C.2   134  GLN134      0.2608
      8  OE1       10.3040   46.7830   61.4390 O.2   134  GLN134     -0.2717
      9  NE2        9.3050   45.0880   62.5290 N.am  134  GLN134     -0.0878
     10  N          6.5520   43.2350   61.5380 N.3   136  GLN136     -0.1231
     11  CA         6.7580   42.1790   62.5340 C.3   136  GLN136      0.1698
     12  C          6.4260   42.7750   63.9080 C.2   136  GLN136      0.2592
     13  O          6.7760   43.9190   64.1700 O.2   136  GLN136     -0.2718
     14  CB         8.2330   41.6860   62.4940 C.3   136  GLN136      0.0381
     15  CG         8.4600   40.4490   63.3850 C.3   136  GLN136      0.0905
     16  CD         9.8990   39.9390   63.3470 C.2   136  GLN136      0.2608
     17  OE1       10.8310   40.6730   63.0210 O.2   136  GLN136     -0.2717
     18  NE2       10.0750   38.6700   63.6890 N.am  136  GLN136     -0.0878
     19  N          5.7390   42.0270   64.7690 N.am  137  ALA137     -0.1980
     20  CA         5.2650   40.6580   64.4840 C.3   137  ALA137      0.1597
     21  C          3.9270   40.6080   63.7870 C.2   137  ALA137      0.2287
     22  O          3.7750   39.9330   62.7940 O.2   137  ALA137     -0.2864
     23  CB         5.1330   39.8680   65.7660 C.3   137  ALA137      0.0319
     24  N         13.7340   49.3000   65.9570 N.3   267  TYR267     -0.1227
     25  CA        14.6630   48.1950   66.2170 C.3   267  TYR267      0.1736
     26  C         16.0440   48.4750   65.6350 C.2   267  TYR267      0.2596
     27  O         16.2390   49.4230   64.8820 O.2   267  TYR267     -0.2718
     28  CB        14.1150   46.8960   65.5860 C.3   267  TYR267      0.0548
     29  CG        12.7700   46.4960   66.1710 C.ar  267  TYR267     -0.0200
     30  CD1       12.7140   45.8300   67.4000 C.ar  267  TYR267     -0.0009
     31  CD2       11.5720   46.8620   65.5580 C.ar  267  TYR267     -0.0009
     32  CE1       11.4910   45.5290   68.0190 C.ar  267  TYR267      0.0417
     33  CE2       10.3270   46.5730   66.1720 C.ar  267  TYR267      0.0417
     34  CZ        10.3050   45.9040   67.3990 C.ar  267  TYR267      0.1957
     35  OH         9.1340   45.5700   68.0430 O.3   267  TYR267     -0.2866
     36  N         16.9990   47.6160   65.9730 N.am  268  GLY268     -0.1942
     37  CA        18.3370   47.7810   65.4370 C.3   268  GLY268      0.2014
     38  C         18.2660   47.5820   63.9420 C.2   268  GLY268      0.2639
     39  O         18.9990   48.2050   63.1860 O.2   268  GLY268     -0.2714
     40  N         17.3490   46.7170   63.5140 N.am  269  GLY269     -0.1939
     41  CA        17.1990   46.4540   62.1020 C.3   269  GLY269      0.2014
     42  C         15.9690   45.5960   61.9090 C.2   269  GLY269      0.2639
     43  O         15.3150   45.2290   62.8670 O.2   269  GLY269     -0.2714
     44  N         15.6540   45.3000   60.6630 N.am  270  MET270     -0.1963
     45  CA        14.5320   44.4510   60.3140 C.3   270  MET270      0.1736
     46  C         14.9780   43.7810   59.0200 C.2   270  MET270      0.2616
     47  O         15.2790   44.4650   58.0080 O.2   270  MET270     -0.2715
     48  CB        13.2470   45.2560   60.0760 C.3   270  MET270      0.0427
     49  CG        12.0490   44.3870   59.7040 C.3   270  MET270      0.0599
     50  SD        11.7400   43.0830   60.9490 S.3   270  MET270     -0.1393
     51  CE        11.2970   41.6860   59.8620 C.3   270  MET270      0.0692
     52  N         15.0580   42.4570   59.0870 N.am  271  GLU271     -0.1977
     53  CA        15.4930   41.6060   57.9780 C.3   271  GLU271      0.1602
     54  C         14.5330   41.5550   56.7870 C.2   271  GLU271      0.2287
     55  O         14.3090   40.4750   56.2240 O.2   271  GLU271     -0.2864
     56  CB        15.7310   40.1750   58.5330 C.3   271  GLU271      0.0415
     57  CG        14.4510   39.4410   58.9750 C.3   271  GLU271      0.1163
     58  CD        14.1330   39.5920   60.4690 C.2   271  GLU271      0.3649
     59  OE1       14.4990   40.6180   61.0890 O.co2 271  GLU271     -0.2457
     60  OE2       13.5010   38.6770   61.0130 O.co2 271  GLU271     -0.2457
     61  N         25.2160   44.1210   63.8680 N.3   292  VAL292     -0.1245
     62  CA        23.7730   44.2260   63.5710 C.3   292  VAL292      0.1561
     63  C         23.5640   43.9010   62.0890 C.2   292  VAL292      0.2260
     64  O         22.5950   43.2420   61.7370 O.2   292  VAL292     -0.2867
     65  CB        23.2000   45.6140   63.9220 C.3   292  VAL292      0.0252
     66  CG1       21.7120   45.7300   63.4590 C.3   292  VAL292      0.0019
     67  CG2       23.2590   45.7930   65.4410 C.3   292  VAL292      0.0019
     68  N         23.8670   40.2480   61.6970 N.3   295  HIS295     -0.1226
     69  CA        22.6270   39.6650   62.2160 C.3   295  HIS295      0.1752
     70  C         21.5110   39.6980   61.1450 C.2   295  HIS295      0.2595
     71  O         20.9240   38.6680   60.8550 O.2   295  HIS295     -0.2718
     72  CB        22.1570   40.4380   63.4550 C.3   295  HIS295      0.0759
     73  CG        20.9220   39.8630   64.0950 C.ar  295  HIS295      0.0818
     74  ND1       20.9750   38.9340   65.1120 N.ar  295  HIS295     -0.2268
     75  CD2       19.6070   40.0430   63.8200 C.ar  295  HIS295      0.1154
     76  CE1       19.7510   38.5640   65.4330 C.ar  295  HIS295      0.1986
     77  NE2       18.9010   39.2210   64.6660 N.ar  295  HIS295     -0.2212
     78  N         21.2160   40.8600   60.5640 N.am  296  GLU296     -0.1979
     79  CA        20.1280   40.9190   59.5520 C.3   296  GLU296      0.1602
     80  C         20.4460   40.0540   58.3310 C.2   296  GLU296      0.2287
     81  O         19.5590   39.4310   57.7500 O.2   296  GLU296     -0.2864
     82  CB        19.8500   42.3610   59.0800 C.3   296  GLU296      0.0415
     83  CG        19.6640   43.4480   60.1760 C.3   296  GLU296      0.1163
     84  CD        18.7970   43.0470   61.3570 C.2   296  GLU296      0.3649
     85  OE1       18.0870   42.0340   61.2880 O.co2 296  GLU296     -0.2457
     86  OE2       18.8190   43.7920   62.3820 O.co2 296  GLU296     -0.2457
     87  N         19.5400   36.4630   58.9830 N.3   299  HIS299     -0.1241
     88  CA        18.1080   36.2070   58.8900 C.3   299  HIS299      0.1621
     89  C         17.6900   35.7510   57.4810 C.2   299  HIS299      0.2264
     90  O         16.6320   35.1400   57.3320 O.2   299  HIS299     -0.2867
     91  CB        17.2900   37.4540   59.2760 C.3   299  HIS299      0.0745
     92  CG        16.9620   37.5380   60.7380 C.ar  299  HIS299      0.0817
     93  ND1       16.3920   36.4890   61.4270 N.ar  299  HIS299     -0.2268
     94  CD2       17.1110   38.5400   61.6400 C.ar  299  HIS299      0.1154
     95  CE1       16.2090   36.8340   62.6870 C.ar  299  HIS299      0.1986
     96  NE2       16.6350   38.0700   62.8380 N.ar  299  HIS299     -0.2212
     97  N          4.5770   32.6230   66.7260 N.3   311  TRP311     -0.1241
     98  CA         5.5100   33.4380   67.4850 C.3   311  TRP311      0.1605
     99  C          5.9110   32.7720   68.7930 C.2   311  TRP311      0.2264
    100  O          6.8390   33.2310   69.4480 O.2   311  TRP311     -0.2867
    101  CB         4.9050   34.8290   67.7230 C.3   311  TRP311      0.0550
    102  CG         4.6910   35.5320   66.4320 C.ar  311  TRP311      0.0003
    103  CD1        3.5000   35.9110   65.8890 C.ar  311  TRP311      0.0946
    104  CD2        5.6990   35.8830   65.4720 C.ar  311  TRP311      0.0152
    105  NE1        3.6990   36.4700   64.6560 N.ar  311  TRP311     -0.2442
    106  CE2        5.0410   36.4700   64.3740 C.ar  311  TRP311      0.0810
    107  CE3        7.1030   35.7580   65.4360 C.ar  311  TRP311      0.0012
    108  CZ2        5.7280   36.9350   63.2520 C.ar  311  TRP311      0.0191
    109  CZ3        7.7800   36.2250   64.3160 C.ar  311  TRP311      0.0001
    110  CH2        7.0960   36.8050   63.2430 C.ar  311  TRP311      0.0015
    111  N          9.5100   31.7580   68.4330 N.3   314  PHE314     -0.1241
    112  CA        10.3400   32.8540   67.9500 C.3   314  PHE314      0.1605
    113  C         11.8400   32.6110   68.1800 C.2   314  PHE314      0.2264
    114  O         12.6890   33.1210   67.4550 O.2   314  PHE314     -0.2867
    115  CB         9.8860   34.1470   68.6560 C.3   314  PHE314      0.0534
    116  CG        10.6050   35.3990   68.2010 C.ar  314  PHE314     -0.0203
    117  CD1       10.7190   35.7320   66.8380 C.ar  314  PHE314     -0.0042
    118  CD2       11.1270   36.2870   69.1630 C.ar  314  PHE314     -0.0042
    119  CE1       11.3450   36.9570   66.4540 C.ar  314  PHE314     -0.0003
    120  CE2       11.7360   37.4830   68.8010 C.ar  314  PHE314     -0.0003
    121  CZ        11.8460   37.8280   67.4520 C.ar  314  PHE314     -0.0000
    122  N         15.4280   33.7540   66.1910 N.3   318  GLU318     -0.1245
    123  CA        16.4920   34.5450   66.7460 C.3   318  GLU318      0.1567
    124  C         17.7020   33.8330   67.2580 C.2   318  GLU318      0.2260
    125  O         18.8120   34.3140   67.0690 O.2   318  GLU318     -0.2867
    126  CB        15.9300   35.4910   67.8080 C.3   318  GLU318      0.0388
    127  CG        14.8880   36.4520   67.2720 C.3   318  GLU318      0.1160
    128  CD        15.3910   37.3460   66.1060 C.2   318  GLU318      0.3649
    129  OE1       16.6290   37.5290   65.9160 O.co2 318  GLU318     -0.2457
    130  OE2       14.5260   37.8880   65.3940 O.co2 318  GLU318     -0.2457
    131  N          1.9820   32.7270   73.9340 N.3   369  LEU369     -0.1245
    132  CA         1.5050   34.0860   73.7390 C.3   369  LEU369      0.1561
    133  C         -0.0240   34.2640   73.7160 C.2   369  LEU369      0.2260
    134  O         -0.5090   35.2990   73.2710 O.2   369  LEU369     -0.2867
    135  CB         2.0910   34.6650   72.4420 C.3   369  LEU369      0.0270
    136  CG         3.6030   34.8910   72.5240 C.3   369  LEU369      0.0019
    137  CD1        4.1370   35.2880   71.1450 C.3   369  LEU369      0.0001
    138  CD2        3.9240   35.9310   73.5960 C.3   369  LEU369      0.0001
    139  N          2.4550   40.4320   71.3730 N.3   374  PRO374     -0.2102
    140  CA         3.8780   40.1340   71.1430 C.3   374  PRO374      0.1504
    141  C          4.8260   41.2790   71.4700 C.2   374  PRO374      0.2575
    142  O          5.9000   41.0780   72.0600 O.2   374  PRO374     -0.2718
    143  CB         3.9160   39.7750   69.6610 C.3   374  PRO374      0.0282
    144  CG         2.6460   39.0680   69.4910 C.3   374  PRO374      0.0208
    145  CD         1.6480   39.9370   70.2450 C.3   374  PRO374      0.0893
    146  N          4.4430   42.4840   71.0620 N.am  375  ASP375     -0.1974
    147  CA         5.2730   43.6500   71.3470 C.3   375  ASP375      0.1708
    148  C          5.5790   43.8200   72.8210 C.2   375  ASP375      0.2293
    149  O          6.5970   44.3990   73.1720 O.2   375  ASP375     -0.2864
    150  CB         4.5950   44.9260   70.8670 C.3   375  ASP375      0.1436
    151  CG         4.5830   45.0300   69.3760 C.2   375  ASP375      0.3671
    152  OD1        5.5290   44.5070   68.7390 O.co2 375  ASP375     -0.2456
    153  OD2        3.6410   45.6460   68.8460 O.co2 375  ASP375     -0.2456
    154  N          5.8050   41.2260   74.9990 N.3   377  ALA377     -0.1231
    155  CA         6.6370   40.1040   75.4560 C.3   377  ALA377      0.1694
    156  C          8.0630   40.1380   74.9460 C.2   377  ALA377      0.2592
    157  O          8.9380   39.4760   75.4950 O.2   377  ALA377     -0.2718
    158  CB         6.0060   38.7540   75.0470 C.3   377  ALA377      0.0304
    159  N          8.2870   40.9150   73.9020 N.am  378  TYR378     -0.1976
    160  CA         9.5960   41.0070   73.2670 C.3   378  TYR378      0.1639
    161  C         10.7520   41.3010   74.2280 C.2   378  TYR378      0.2290
    162  O         10.6840   42.2510   75.0050 O.2   378  TYR378     -0.2864
    163  CB         9.5590   42.0950   72.2140 C.3   378  TYR378      0.0560
    164  CG        10.8600   42.2150   71.4680 C.ar  378  TYR378     -0.0198
    165  CD1       11.2480   41.2210   70.5640 C.ar  378  TYR378     -0.0009
    166  CD2       11.6860   43.3300   71.6410 C.ar  378  TYR378     -0.0009
    167  CE1       12.4380   41.3350   69.8420 C.ar  378  TYR378      0.0417
    168  CE2       12.8690   43.4550   70.9170 C.ar  378  TYR378      0.0417
    169  CZ        13.2370   42.4530   70.0210 C.ar  378  TYR378      0.1957
    170  OH        14.4170   42.5740   69.2870 O.3   378  TYR378     -0.2866
    171  N         16.7610   35.5220   71.9270 N.3   383  TYR383     -0.1241
    172  CA        18.0390   35.6840   71.2650 C.3   383  TYR383      0.1605
    173  C         19.1200   34.9850   72.0420 C.2   383  TYR383      0.2264
    174  O         19.8600   34.1700   71.5120 O.2   383  TYR383     -0.2867
    175  CB        18.4560   37.1580   71.2020 C.3   383  TYR383      0.0534
    176  CG        17.5940   38.0170   70.3220 C.ar  383  TYR383     -0.0201
    177  CD1       16.3260   38.4260   70.7370 C.ar  383  TYR383     -0.0009
    178  CD2       18.0430   38.4370   69.0710 C.ar  383  TYR383     -0.0009
    179  CE1       15.5290   39.2300   69.9240 C.ar  383  TYR383      0.0417
    180  CE2       17.2510   39.2390   68.2620 C.ar  383  TYR383      0.0417
    181  CZ        15.9960   39.6280   68.6970 C.ar  383  TYR383      0.1957
    182  OH        15.1980   40.4040   67.8900 O.3   383  TYR383     -0.2866
    183  N         15.1690   53.9630   68.9740 N.3   563  ARG563     -0.1245
    184  CA        15.4170   52.5310   69.0030 C.3   563  ARG563      0.1563
    185  C         14.9640   52.1060   70.4080 C.2   563  ARG563      0.2260
    186  O         15.4680   52.6170   71.4350 O.2   563  ARG563     -0.2867
    187  CB        16.9060   52.2700   68.7690 C.3   563  ARG563      0.0307
    188  CG        17.2890   50.7820   68.6490 C.3   563  ARG563      0.0489
    189  CD        18.7960   50.7200   68.4560 C.3   563  ARG563      0.2205
    190  NE        19.3190   49.3530   68.3840 N.pl3 563  ARG563     -0.0865
    191  CZ        20.5900   49.0920   68.1120 C.cat 563  ARG563      0.5346
    192  NH1       21.4170   50.1100   67.8810 N.pl3 563  ARG563      0.1354
    193  NH2       21.0210   47.8220   68.0670 N.pl3 563  ARG563      0.1354
    194  N         15.4730   49.5830   72.2390 N.3   565  LYS565     -0.1245
    195  CA        16.5290   49.0120   73.0680 C.3   565  LYS565      0.1561
    196  C         17.1280   50.1150   73.9580 C.2   565  LYS565      0.2260
    197  O         17.5550   49.8520   75.0770 O.2   565  LYS565     -0.2867
    198  CB        17.6150   48.4580   72.1480 C.3   565  LYS565      0.0271
    199  CG        18.7700   47.8190   72.8490 C.3   565  LYS565      0.0035
    200  CD        19.8720   47.4810   71.8510 C.3   565  LYS565      0.0206
    201  CE        21.0720   46.8680   72.5700 C.3   565  LYS565      0.1093
    202  NZ        22.0820   46.2970   71.6210 N.3   565  LYS565     -0.1314
@<TRIPOS>BOND
     1    55    54    2
     2    54    53    1
     3    90    89    2
     4    89    88    1
     5    81    80    2
     6    53    56    1
     7    53    52    1
     8    47    46    2
     9    80    79    1
    10    56    57    1
    11    88    87    1
    12    88    91    1
    13    57    58    1
    14    46    52   am
    15    46    45    1
    16    82    79    1
    17    82    83    1
    18    91    92    1
    19     1     2    1
    20    79    78    1
    21    49    48    1
    22    49    50    1
    23    51    50    1
    24    48    45    1
    25    83    84    1
    26    45    44    1
    27     2     3    1
    28     2     5    1
    29    58    60   ar
    30    58    59   ar
    31    78    70   am
    32    44    42   am
    33    92    93   ar
    34    92    94   ar
    35     3     4    2
    36    71    70    2
    37    70    69    1
    38    85    84   ar
    39    84    86   ar
    40    93    95   ar
    41     8     7    2
    42    10    11    1
    43    94    96   ar
    44     5     6    1
    45    68    69    1
    46    64    63    2
    47    42    41    1
    48    42    43    2
    49    63    62    1
    50    41    40    1
    51     7     9   am
    52     7     6    1
    53    69    72    1
    54    14    11    1
    55    14    15    1
    56    11    12    1
    57    95    96   ar
    58    22    21    2
    59    17    16    2
    60    39    38    2
    61   110   108   ar
    62   110   109   ar
    63   108   106   ar
    64    16    15    1
    65    16    18   am
    66    72    73    1
    67    66    65    1
    68    40    38   am
    69    62    61    1
    70    62    65    1
    71    21    20    1
    72    75    73   ar
    73    75    77   ar
    74    12    13    2
    75    12    19   am
    76    65    67    1
    77    38    37    1
    78    73    74   ar
    79   109   107   ar
    80   106   105   ar
    81   106   104   ar
    82    20    19    1
    83    20    23    1
    84   105   103   ar
    85    77    76   ar
    86    27    26    2
    87    74    76   ar
    88   130   128   ar
    89   107   104   ar
    90    37    36    1
    91   104   102   ar
    92    31    29   ar
    93    31    33   ar
    94    28    29    1
    95    28    25    1
    96    26    36   am
    97    26    25    1
    98   103   102   ar
    99   129   128   ar
   100    24    25    1
   101   128   127    1
   102    29    30   ar
   103    33    34   ar
   104   122   123    1
   105   102   101    1
   106   119   117   ar
   107   119   121   ar
   108    97    98    1
   109   123   124    1
   110   123   126    1
   111   117   116   ar
   112   125   124    2
   113   127   126    1
   114    34    32   ar
   115    34    35    1
   116    30    32   ar
   117   121   120   ar
   118   114   113    2
   119    98   101    1
   120    98    99    1
   121   192   191    1
   122   182   181    1
   123   112   113    1
   124   112   111    1
   125   112   115    1
   126   193   191    1
   127   191   190    2
   128   116   115    1
   129   116   118   ar
   130   180   181   ar
   131   180   178   ar
   132   190   189    1
   133   189   188    1
   134   188   187    1
   135   181   179   ar
   136   152   151   ar
   137   187   184    1
   138    99   100    2
   139   120   118   ar
   140   153   151   ar
   141   183   184    1
   142   184   185    1
   143   178   176   ar
   144   170   169    1
   145   151   150    1
   146   144   143    1
   147   144   145    1
   148   143   140    1
   149   167   169   ar
   150   167   165   ar
   151   179   177   ar
   152   169   168   ar
   153   145   139    1
   154   176   177   ar
   155   176   175    1
   156   185   186    2
   157   165   164   ar
   158   150   147    1
   159   168   166   ar
   160   146   147    1
   161   146   141   am
   162   140   139    1
   163   140   141    1
   164   137   136    1
   165   175   172    1
   166   172   171    1
   167   172   173    1
   168   147   148    1
   169   164   166   ar
   170   164   163    1
   171   141   142    2
   172   174   173    2
   173   202   201    1
   174   200   201    1
   175   200   199    1
   176   198   199    1
   177   198   195    1
   178   163   160    1
   179   194   195    1
   180   135   136    1
   181   135   132    1
   182   136   138    1
   183   148   149    2
   184   195   196    1
   185   160   159    1
   186   160   161    1
   187   134   133    2
   188   133   132    1
   189   132   131    1
   190   159   156   am
   191   196   197    2
   192   161   162    2
   193   156   155    1
   194   156   157    2
   195   154   155    1
   196   158   155    1
