@<TRIPOS>MOLECULE
tmp/2vj9A00.pdb
 218 206 0 0 0
SMALL
GASTEIGER

@<TRIPOS>ATOM
      1  N         23.3760   -7.6360   37.4520 N.3    10  SER10      -0.1202
      2  CA        24.0630   -6.4470   37.9470 C.3    10  SER10       0.2020
      3  C         25.5250   -6.3930   37.5050 C.2    10  SER10       0.2619
      4  O         26.0350   -5.3230   37.1520 O.2    10  SER10      -0.2717
      5  CB        23.9880   -6.3940   39.4780 C.3    10  SER10       0.2103
      6  OG        24.5720   -7.5470   40.0640 O.3    10  SER10      -0.2182
      7  N         26.1870   -7.5480   37.5150 N.am   11  GLY11      -0.1942
      8  CA        27.6120   -7.5950   37.2420 C.3    11  GLY11       0.2014
      9  C         27.9680   -7.3150   35.7930 C.2    11  GLY11       0.2639
     10  O         29.0440   -6.7950   35.5050 O.2    11  GLY11      -0.2714
     11  N         27.0710   -7.6570   34.8760 N.am   12  GLN12      -0.1963
     12  CA        27.3600   -7.4770   33.4590 C.3    12  GLN12       0.1733
     13  C         26.3930   -6.5310   32.7590 C.2    12  GLN12       0.2616
     14  O         26.5460   -6.2500   31.5710 O.2    12  GLN12      -0.2715
     15  CB        27.3650   -8.8330   32.7530 C.3    12  GLN12       0.0408
     16  CG        28.4120   -9.7910   33.3000 C.3    12  GLN12       0.0908
     17  CD        28.4900  -11.0900   32.5210 C.2    12  GLN12       0.2608
     18  OE1       27.5340  -11.4900   31.8570 O.2    12  GLN12      -0.2717
     19  NE2       29.6350  -11.7570   32.6000 N.am   12  GLN12      -0.0878
     20  N         25.3970   -6.0480   33.4930 N.am   13  GLY13      -0.1955
     21  CA        24.4850   -5.0650   32.9370 C.3    13  GLY13       0.1869
     22  C         23.1560   -5.6380   32.4800 C.2    13  GLY13       0.2309
     23  O         23.0560   -6.8190   32.1450 O.2    13  GLY13      -0.2863
     24  N         22.5500   -2.4590   26.2860 N.3    30  LEU30      -0.1245
     25  CA        22.6010   -2.2280   27.7240 C.3    30  LEU30       0.1561
     26  C         21.9480   -0.8940   28.0910 C.2    30  LEU30       0.2260
     27  O         22.1990    0.1370   27.4620 O.2    30  LEU30      -0.2867
     28  CB        24.0570   -2.2610   28.2010 C.3    30  LEU30       0.0270
     29  CG        24.3160   -2.0850   29.7040 C.3    30  LEU30       0.0019
     30  CD1       25.5670   -2.8560   30.0800 C.3    30  LEU30       0.0001
     31  CD2       24.4550   -0.6040   30.0500 C.3    30  LEU30       0.0001
     32  N         21.7180    2.2030   30.2980 N.3    32  ASP32      -0.1239
     33  CA        22.6880    2.8970   31.1490 C.3    32  ASP32       0.1674
     34  C         22.2530    4.3180   31.5270 C.2    32  ASP32       0.2266
     35  O         22.4040    5.2520   30.7340 O.2    32  ASP32      -0.2867
     36  CB        24.0450    2.9660   30.4410 C.3    32  ASP32       0.1410
     37  CG        25.1070    3.6450   31.2880 C.2    32  ASP32       0.3668
     38  OD1       24.9170    3.7290   32.5160 O.co2  32  ASP32      -0.2456
     39  OD2       26.1330    4.0910   30.7250 O.co2  32  ASP32      -0.2456
     40  N         23.7510    6.0960   33.4890 N.3    34  GLY34      -0.1210
     41  CA        24.9670    6.7870   33.8930 C.3    34  GLY34       0.1956
     42  C         25.8020    7.3350   32.7430 C.2    34  GLY34       0.2612
     43  O         26.9570    7.7180   32.9360 O.2    34  GLY34      -0.2717
     44  N         25.2300    7.3650   31.5440 N.am   35  SER35      -0.1952
     45  CA        25.8670    8.0220   30.4030 C.3    35  SER35       0.1924
     46  C         24.7930    8.4830   29.4150 C.2    35  SER35       0.2314
     47  O         23.6010    8.2800   29.6520 O.2    35  SER35      -0.2863
     48  CB        26.8570    7.0710   29.7130 C.3    35  SER35       0.2116
     49  OG        26.1940    6.0300   29.0110 O.3    35  SER35      -0.2180
     50  N         34.5790    5.2350   30.1630 N.3    71  TYR71      -0.1227
     51  CA        33.7470    5.0110   31.3430 C.3    71  TYR71       0.1736
     52  C         34.6620    4.6900   32.5250 C.2    71  TYR71       0.2596
     53  O         35.8900    4.7070   32.3900 O.2    71  TYR71      -0.2718
     54  CB        32.7760    3.8450   31.0990 C.3    71  TYR71       0.0548
     55  CG        31.8930    4.0010   29.8690 C.ar   71  TYR71      -0.0200
     56  CD1       30.7320    4.7640   29.9110 C.ar   71  TYR71      -0.0009
     57  CD2       32.2180    3.3730   28.6760 C.ar   71  TYR71      -0.0009
     58  CE1       29.9160    4.8970   28.7960 C.ar   71  TYR71       0.0417
     59  CE2       31.4080    3.4970   27.5540 C.ar   71  TYR71       0.0417
     60  CZ        30.2600    4.2600   27.6200 C.ar   71  TYR71       0.1957
     61  OH        29.4600    4.3890   26.5050 O.3    71  TYR71      -0.2866
     62  N         34.0760    4.4040   33.6830 N.am   72  THR72      -0.1939
     63  CA        34.8690    3.9580   34.8210 C.3    72  THR72       0.2028
     64  C         35.5130    2.6420   34.4150 C.2    72  THR72       0.2642
     65  O         36.7030    2.4160   34.6380 O.2    72  THR72      -0.2714
     66  CB        33.9870    3.7210   36.0640 C.3    72  THR72       0.1808
     67  OG1       33.2000    4.8880   36.3210 O.3    72  THR72      -0.2208
     68  CG2       34.8530    3.4300   37.2880 C.3    72  THR72       0.0379
     69  N         34.7060    1.7870   33.7970 N.am   73  GLN73      -0.1976
     70  CA        35.1560    0.5100   33.2730 C.3    73  GLN73       0.1601
     71  C         35.0150    0.5360   31.7560 C.2    73  GLN73       0.2287
     72  O         33.9140    0.6960   31.2360 O.2    73  GLN73      -0.2864
     73  CB        34.2980   -0.6090   33.8720 C.3    73  GLN73       0.0394
     74  CG        34.5180   -1.9900   33.2900 C.3    73  GLN73       0.0908
     75  CD        33.7940   -3.0560   34.0880 C.2    73  GLN73       0.2608
     76  OE1       34.0130   -3.1990   35.2930 O.2    73  GLN73      -0.2717
     77  NE2       32.9160   -3.8030   33.4250 N.am   73  GLN73      -0.0878
     78  N         35.5860   -2.9130   27.1820 N.3   108  PHE108     -0.1241
     79  CA        34.2140   -2.4240   27.1890 C.3   108  PHE108      0.1605
     80  C         33.2310   -3.5820   27.0660 C.2   108  PHE108      0.2264
     81  O         32.4400   -3.8330   27.9750 O.2   108  PHE108     -0.2867
     82  CB        33.9970   -1.4310   26.0440 C.3   108  PHE108      0.0534
     83  CG        32.5810   -0.9390   25.9330 C.ar  108  PHE108     -0.0203
     84  CD1       32.0040   -0.2150   26.9620 C.ar  108  PHE108     -0.0042
     85  CD2       31.8220   -1.2190   24.8090 C.ar  108  PHE108     -0.0042
     86  CE1       30.6940    0.2210   26.8760 C.ar  108  PHE108     -0.0003
     87  CE2       30.5110   -0.7850   24.7170 C.ar  108  PHE108     -0.0003
     88  CZ        29.9470   -0.0670   25.7490 C.ar  108  PHE108     -0.0000
     89  N         31.7350   -7.2060   27.2660 N.3   110  ILE110     -0.1245
     90  CA        31.8950   -8.2230   28.2950 C.3   110  ILE110      0.1561
     91  C         31.5140   -9.5760   27.7130 C.2   110  ILE110      0.2260
     92  O         30.4270   -9.7420   27.1610 O.2   110  ILE110     -0.2867
     93  CB        30.9880   -7.9220   29.5060 C.3   110  ILE110      0.0252
     94  CG1       31.4090   -6.5980   30.1490 C.3   110  ILE110      0.0019
     95  CG2       31.0530   -9.0690   30.5110 C.3   110  ILE110      0.0019
     96  CD1       30.4400   -6.0860   31.2070 C.3   110  ILE110      0.0001
     97  N         24.9550   -8.5910   25.2540 N.3   115  TRP115     -0.1241
     98  CA        24.6670   -7.2980   24.6340 C.3   115  TRP115      0.1605
     99  C         25.7750   -6.7930   23.7090 C.2   115  TRP115      0.2264
    100  O         26.9390   -7.1870   23.8350 O.2   115  TRP115     -0.2867
    101  CB        24.3280   -6.2380   25.7010 C.3   115  TRP115      0.0550
    102  CG        25.3490   -6.0350   26.7920 C.ar  115  TRP115      0.0003
    103  CD1       25.3060   -6.5480   28.0610 C.ar  115  TRP115      0.0946
    104  CD2       26.5140   -5.1960   26.7420 C.ar  115  TRP115      0.0152
    105  NE1       26.3640   -6.0770   28.8000 N.ar  115  TRP115     -0.2442
    106  CE2       27.1200   -5.2460   28.0150 C.ar  115  TRP115      0.0810
    107  CE3       27.0990   -4.4060   25.7470 C.ar  115  TRP115      0.0012
    108  CZ2       28.2800   -4.5370   28.3180 C.ar  115  TRP115      0.0191
    109  CZ3       28.2530   -3.7000   26.0520 C.ar  115  TRP115      0.0001
    110  CH2       28.8300   -3.7710   27.3280 C.ar  115  TRP115      0.0015
    111  N         25.1690    0.0560   23.8760 N.3   118  ILE118     -0.1245
    112  CA        24.8040    0.7090   25.1260 C.3   118  ILE118      0.1561
    113  C         23.8860    1.8940   24.8320 C.2   118  ILE118      0.2260
    114  O         24.0820    2.6170   23.8520 O.2   118  ILE118     -0.2867
    115  CB        26.0850    1.1640   25.8710 C.3   118  ILE118      0.0252
    116  CG1       25.7280    1.7590   27.2360 C.3   118  ILE118      0.0019
    117  CG2       26.8650    2.1500   25.0100 C.3   118  ILE118      0.0019
    118  CD1       26.9400    1.8840   28.1810 C.3   118  ILE118      0.0001
    119  N         24.0380   13.8800   34.8040 N.3   183  TYR183     -0.1241
    120  CA        23.7010   12.5480   35.3110 C.3   183  TYR183      0.1605
    121  C         22.3390   12.6890   35.9760 C.2   183  TYR183      0.2264
    122  O         21.8060   13.7990   36.0760 O.2   183  TYR183     -0.2867
    123  CB        24.7310   12.0880   36.3470 C.3   183  TYR183      0.0534
    124  CG        26.1450   12.0810   35.8270 C.ar  183  TYR183     -0.0201
    125  CD1       26.5960   11.0640   35.0010 C.ar  183  TYR183     -0.0009
    126  CD2       27.0170   13.1200   36.1300 C.ar  183  TYR183     -0.0009
    127  CE1       27.8780   11.0840   34.4830 C.ar  183  TYR183      0.0417
    128  CE2       28.2910   13.1460   35.6250 C.ar  183  TYR183      0.0417
    129  CZ        28.7200   12.1300   34.8020 C.ar  183  TYR183      0.1957
    130  OH        29.9980   12.1660   34.2970 O.3   183  TYR183     -0.2866
    131  N         29.3220   14.3440   43.8400 N.3   209  LYS209     -0.1245
    132  CA        27.9420   14.2390   43.3770 C.3   209  LYS209      0.1561
    133  C         27.4310   12.8780   43.8470 C.2   209  LYS209      0.2260
    134  O         28.2200   12.0320   44.2680 O.2   209  LYS209     -0.2867
    135  CB        27.8930   14.2940   41.8490 C.3   209  LYS209      0.0271
    136  CG        28.7080   13.1940   41.1750 C.3   209  LYS209      0.0035
    137  CD        28.7260   13.3760   39.6700 C.3   209  LYS209      0.0206
    138  CE        29.6070   12.3450   38.9830 C.3   209  LYS209      0.1093
    139  NZ        31.0600   12.5950   39.2050 N.3   209  LYS209     -0.1314
    140  N         24.6590    9.9370   42.1800 N.3   211  ILE211     -0.1245
    141  CA        23.8520    9.6510   40.9950 C.3   211  ILE211      0.1561
    142  C         23.2090    8.2730   41.0480 C.2   211  ILE211      0.2260
    143  O         23.6750    7.3830   41.7580 O.2   211  ILE211     -0.2867
    144  CB        24.6970    9.7260   39.7060 C.3   211  ILE211      0.0252
    145  CG1       25.6940    8.5650   39.6600 C.3   211  ILE211      0.0019
    146  CG2       25.4460   11.0480   39.6520 C.3   211  ILE211      0.0019
    147  CD1       26.4880    8.5170   38.3680 C.3   211  ILE211      0.0001
    148  N         22.6230    5.1050   38.7600 N.3   213  ASP213     -0.1225
    149  CA        23.3740    4.6370   37.5910 C.3   213  ASP213      0.1805
    150  C         23.1700    3.1430   37.3230 C.2   213  ASP213      0.2598
    151  O         23.8240    2.2930   37.9260 O.2   213  ASP213     -0.2718
    152  CB        24.8660    4.9300   37.7940 C.3   213  ASP213      0.1424
    153  CG        25.7130    4.5760   36.5830 C.2   213  ASP213      0.3668
    154  OD1       25.1770    4.0620   35.5730 O.co2 213  ASP213     -0.2456
    155  OD2       26.9350    4.8250   36.6450 O.co2 213  ASP213     -0.2456
    156  N         22.2720    2.8230   36.4000 N.am  214  SER214     -0.1938
    157  CA        21.9800    1.4310   36.0890 C.3   214  SER214      0.2055
    158  C         23.1330    0.7310   35.3810 C.2   214  SER214      0.2644
    159  O         23.1460   -0.4940   35.2760 O.2   214  SER214     -0.2714
    160  CB        20.7230    1.3340   35.2220 C.3   214  SER214      0.2130
    161  OG        20.9160    1.9550   33.9620 O.3   214  SER214     -0.2179
    162  N         24.0920    1.5150   34.8980 N.am  215  GLY215     -0.1939
    163  CA        25.2140    0.9650   34.1590 C.3   215  GLY215      0.2014
    164  C         26.4280    0.6180   35.0050 C.2   215  GLY215      0.2640
    165  O         27.3750    0.0290   34.4980 O.2   215  GLY215     -0.2714
    166  N         26.4060    0.9810   36.2850 N.am  216  THR216     -0.1936
    167  CA        27.4650    0.5950   37.2210 C.3   216  THR216      0.2028
    168  C         26.9520   -0.5240   38.1130 C.2   216  THR216      0.2643
    169  O         25.7990   -0.5120   38.5260 O.2   216  THR216     -0.2714
    170  CB        27.8830    1.7870   38.1170 C.3   216  THR216      0.1808
    171  OG1       28.5380    2.7790   37.3210 O.3   216  THR216     -0.2208
    172  CG2       28.8110    1.3240   39.2420 C.3   216  THR216      0.0379
    173  N         27.8030   -1.4970   38.4140 N.am  217  THR217     -0.1936
    174  CA        27.3680   -2.6200   39.2310 C.3   217  THR217      0.2028
    175  C         27.1960   -2.2380   40.7030 C.2   217  THR217      0.2642
    176  O         26.1350   -2.4520   41.2880 O.2   217  THR217     -0.2714
    177  CB        28.3640   -3.7900   39.1380 C.3   217  THR217      0.1808
    178  OG1       28.4470   -4.2330   37.7750 O.3   217  THR217     -0.2208
    179  CG2       27.9080   -4.9470   40.0230 C.3   217  THR217      0.0379
    180  N         28.2410   -1.6640   41.2940 N.am  218  ASN218     -0.1971
    181  CA        28.3180   -1.5310   42.7480 C.3   218  ASN218      0.1688
    182  C         27.6150   -0.2900   43.2820 C.2   218  ASN218      0.2292
    183  O         27.2730    0.6260   42.5330 O.2   218  ASN218     -0.2864
    184  CB        29.7780   -1.4740   43.1950 C.3   218  ASN218      0.1181
    185  CG        30.4840   -2.8060   43.0720 C.2   218  ASN218      0.2629
    186  OD1       29.8990   -3.8090   42.6440 O.2   218  ASN218     -0.2716
    187  ND2       31.7570   -2.8250   43.4520 N.am  218  ASN218     -0.0877
    188  N         28.9610    2.6520   44.8980 N.3   220  ARG220     -0.1245
    189  CA        30.2840    3.2460   45.0450 C.3   220  ARG220      0.1563
    190  C         30.1640    4.4470   45.9690 C.2   220  ARG220      0.2260
    191  O         29.2280    5.2320   45.8500 O.2   220  ARG220     -0.2867
    192  CB        30.8300    3.6590   43.6760 C.3   220  ARG220      0.0307
    193  CG        30.8490    2.4900   42.6720 C.3   220  ARG220      0.0489
    194  CD        31.5710    2.8270   41.3750 C.3   220  ARG220      0.2205
    195  NE        32.9740    3.1440   41.6240 N.pl3 220  ARG220     -0.0865
    196  CZ        33.6380    4.1360   41.0420 C.cat 220  ARG220      0.5346
    197  NH1       34.9110    4.3450   41.3540 N.pl3 220  ARG220      0.1354
    198  NH2       33.0410    4.9050   40.1420 N.pl3 220  ARG220      0.1354
    199  N         32.1170   -0.2750   47.0820 N.3   310  SER310     -0.1217
    200  CA        33.5050    0.0350   46.7590 C.3   310  SER310      0.1889
    201  C         33.7880    1.5310   46.7170 C.2   310  SER310      0.2288
    202  O         32.8720    2.3530   46.7200 O.2   310  SER310     -0.2866
    203  CB        33.8940   -0.6190   45.4280 C.3   310  SER310      0.2089
    204  OG        32.9930   -0.2740   44.3860 O.3   310  SER310     -0.2183
    205  N         34.8170    9.9250   42.5410 N.3   314  THR314     -0.1218
    206  CA        33.9590   10.7010   41.6610 C.3   314  THR314      0.1862
    207  C         32.5190   10.6750   42.1700 C.2   314  THR314      0.2287
    208  O         31.5670   10.7400   41.3910 O.2   314  THR314     -0.2866
    209  CB        34.0320   10.1640   40.2060 C.3   314  THR314      0.1770
    210  OG1       33.2440   10.9900   39.3420 O.3   314  THR314     -0.2211
    211  CG2       33.5250    8.7400   40.1330 C.3   314  THR314      0.0375
    212  N         27.8550    6.5210   43.6230 N.3   317  VAL317     -0.1245
    213  CA        27.1410    5.9200   42.5070 C.3   317  VAL317      0.1561
    214  C         26.2150    4.8490   43.0480 C.2   317  VAL317      0.2260
    215  O         26.6580    3.8320   43.5930 O.2   317  VAL317     -0.2867
    216  CB        28.1080    5.2840   41.4890 C.3   317  VAL317      0.0252
    217  CG1       27.3360    4.7970   40.2680 C.3   317  VAL317      0.0019
    218  CG2       29.1560    6.2950   41.0740 C.3   317  VAL317      0.0019
@<TRIPOS>BOND
     1    99   100    2
     2    99    98    1
     3   114   113    2
     4   111   112    1
     5    98    97    1
     6    98   101    1
     7    87    85   ar
     8    87    88   ar
     9    85    83   ar
    10   113   112    1
    11   117   115    1
    12   112   115    1
    13   101   102    1
    14   107   109   ar
    15   107   104   ar
    16    88    86   ar
    17   115   116    1
    18    83    82    1
    19    83    84   ar
    20    82    79    1
    21   109   110   ar
    22    24    25    1
    23    61    60    1
    24   104   102   ar
    25   104   106   ar
    26   102   103   ar
    27    86    84   ar
    28    80    79    1
    29    80    81    2
    30    92    91    2
    31    78    79    1
    32   116   118    1
    33    89    90    1
    34   110   108   ar
    35    27    26    2
    36    59    60   ar
    37    59    57   ar
    38    60    58   ar
    39    91    90    1
    40    25    26    1
    41    25    28    1
    42   106   108   ar
    43   106   105   ar
    44   103   105   ar
    45    28    29    1
    46    90    93    1
    47    57    55   ar
    48    58    56   ar
    49    49    48    1
    50    46    47    2
    51    46    45    1
    52    93    94    1
    53    93    95    1
    54    29    31    1
    55    29    30    1
    56    48    45    1
    57    55    56   ar
    58    55    54    1
    59    94    96    1
    60    50    51    1
    61    32    33    1
    62    45    44    1
    63    36    33    1
    64    36    37    1
    65    39    37   ar
    66    35    34    2
    67    54    51    1
    68    33    34    1
    69    72    71    2
    70    37    38   ar
    71    51    52    1
    72    44    42   am
    73    14    13    2
    74    71    70    1
    75    18    17    2
    76    23    22    2
    77    53    52    2
    78    22    21    1
    79    17    19   am
    80    17    16    1
    81    52    62   am
    82    42    43    2
    83    42    41    1
    84    15    16    1
    85    15    12    1
    86    13    12    1
    87    13    20   am
    88    21    20    1
    89    70    69    1
    90    70    73    1
    91    74    73    1
    92    74    75    1
    93    77    75   am
    94    12    11    1
    95    40    41    1
    96    62    63    1
    97    69    64   am
    98   161   160    1
    99    75    76    2
   100   163   162    1
   101   163   164    1
   102   130   129    1
   103    64    65    2
   104    64    63    1
   105   127   129   ar
   106   127   125   ar
   107   165   164    2
   108   129   128   ar
   109   119   120    1
   110    63    66    1
   111    11     9   am
   112   162   158   am
   113   125   124   ar
   114   164   166   am
   115   160   157    1
   116   159   158    2
   117   120   121    1
   118   120   123    1
   119   158   157    1
   120    10     9    2
   121   154   153   ar
   122   128   126   ar
   123     9     8    1
   124   124   126   ar
   125   124   123    1
   126   121   122    2
   127    66    67    1
   128    66    68    1
   129   157   156    1
   130   166   167    1
   131   156   150   am
   132   153   155   ar
   133   153   152    1
   134     4     3    2
   135   167   168    1
   136   167   170    1
   137     8     7    1
   138   171   170    1
   139   150   149    1
   140   150   151    2
   141     1     2    1
   142     3     7   am
   143     3     2    1
   144   149   152    1
   145   149   148    1
   146   178   177    1
   147     2     5    1
   148   168   173   am
   149   168   169    2
   150   170   172    1
   151   147   145    1
   152   173   174    1
   153   138   139    1
   154   138   137    1
   155   177   174    1
   156   177   179    1
   157   174   175    1
   158   210   209    1
   159     5     6    1
   160   146   144    1
   161   145   144    1
   162   137   136    1
   163   144   141    1
   164   211   209    1
   165   198   196    1
   166   209   206    1
   167   217   216    1
   168   175   176    2
   169   175   180   am
   170   141   142    1
   171   141   140    1
   172   196   197    1
   173   196   195    2
   174   142   143    2
   175   218   216    1
   176   136   135    1
   177   180   181    1
   178   194   195    1
   179   194   193    1
   180   208   207    2
   181   216   213    1
   182   206   207    1
   183   206   205    1
   184   135   132    1
   185   213   214    1
   186   213   212    1
   187   183   182    2
   188   186   185    2
   189   193   192    1
   190   181   184    1
   191   181   182    1
   192   214   215    2
   193   185   184    1
   194   185   187   am
   195   132   131    1
   196   132   133    1
   197   192   189    1
   198   133   134    2
   199   204   203    1
   200   188   189    1
   201   189   190    1
   202   203   200    1
   203   191   190    2
   204   201   202    2
   205   201   200    1
   206   200   199    1
