@<TRIPOS>MOLECULE
tmp/2vjbB01.pdb
 110 110 0 0 0
SMALL
GASTEIGER

@<TRIPOS>ATOM
      1  N         86.0260   57.3910   89.6840 N.3    67  TYR67      -0.1241
      2  CA        84.7260   57.0230   89.1530 C.3    67  TYR67       0.1605
      3  C         84.5990   55.5160   89.3750 C.2    67  TYR67       0.2264
      4  O         85.5540   54.7830   89.1420 O.2    67  TYR67      -0.2867
      5  CB        84.6910   57.3210   87.6530 C.3    67  TYR67       0.0534
      6  CG        83.4980   56.7450   86.9300 C.ar   67  TYR67      -0.0201
      7  CD1       82.2540   57.3720   86.9870 C.ar   67  TYR67      -0.0009
      8  CD2       83.6120   55.5590   86.1950 C.ar   67  TYR67      -0.0009
      9  CE1       81.1530   56.8370   86.3300 C.ar   67  TYR67       0.0417
     10  CE2       82.5180   55.0150   85.5360 C.ar   67  TYR67       0.0417
     11  CZ        81.2910   55.6600   85.6050 C.ar   67  TYR67       0.1957
     12  OH        80.2080   55.1460   84.9330 O.3    67  TYR67      -0.2866
     13  N         82.5660   52.0010   88.3770 N.3    69  ASP69      -0.1239
     14  CA        81.6990   51.4090   87.3620 C.3    69  ASP69       0.1674
     15  C         80.5520   50.5990   87.9560 C.2    69  ASP69       0.2266
     16  O         80.7690   49.6270   88.6660 O.2    69  ASP69      -0.2867
     17  CB        82.5290   50.5330   86.4120 C.3    69  ASP69       0.1410
     18  CG        81.6650   49.6620   85.5120 C.2    69  ASP69       0.3668
     19  OD1       80.6630   50.1700   84.9720 O.co2  69  ASP69      -0.2456
     20  OD2       81.9900   48.4680   85.3340 O.co2  69  ASP69      -0.2456
     21  N         91.8660   57.6470   84.9980 N.3   118  TYR118     -0.1241
     22  CA        90.6860   58.1320   85.7250 C.3   118  TYR118      0.1605
     23  C         90.2490   57.1180   86.7880 C.2   118  TYR118      0.2264
     24  O         89.2970   57.3520   87.5290 O.2   118  TYR118     -0.2867
     25  CB        89.5210   58.3970   84.7600 C.3   118  TYR118      0.0534
     26  CG        88.8150   57.1510   84.2520 C.ar  118  TYR118     -0.0201
     27  CD1       87.7410   56.5950   84.9520 C.ar  118  TYR118     -0.0009
     28  CD2       89.2240   56.5300   83.0750 C.ar  118  TYR118     -0.0009
     29  CE1       87.0870   55.4490   84.4870 C.ar  118  TYR118      0.0417
     30  CE2       88.5840   55.3870   82.5980 C.ar  118  TYR118      0.0417
     31  CZ        87.5140   54.8500   83.3070 C.ar  118  TYR118      0.1957
     32  OH        86.8790   53.7230   82.8200 O.3   118  TYR118     -0.2866
     33  N         83.0810   63.4510   83.3050 N.3   276  TRP276     -0.1241
     34  CA        82.8740   63.1750   81.8900 C.3   276  TRP276      0.1605
     35  C         82.2070   64.2760   81.0750 C.2   276  TRP276      0.2264
     36  O         82.1470   64.1830   79.8520 O.2   276  TRP276     -0.2867
     37  CB        82.0800   61.8810   81.7330 C.3   276  TRP276      0.0550
     38  CG        82.6530   60.7660   82.5290 C.ar  276  TRP276      0.0003
     39  CD1       82.3970   60.4740   83.8410 C.ar  276  TRP276      0.0946
     40  CD2       83.6490   59.8380   82.0970 C.ar  276  TRP276      0.0152
     41  NE1       83.1790   59.4230   84.2520 N.ar  276  TRP276     -0.2442
     42  CE2       83.9590   59.0140   83.2010 C.ar  276  TRP276      0.0810
     43  CE3       84.3170   59.6260   80.8840 C.ar  276  TRP276      0.0012
     44  CZ2       84.9120   57.9900   83.1270 C.ar  276  TRP276      0.0191
     45  CZ3       85.2630   58.6100   80.8120 C.ar  276  TRP276      0.0001
     46  CH2       85.5520   57.8050   81.9270 C.ar  276  TRP276      0.0015
     47  N         84.5340   66.4280   78.2900 N.3   279  LEU279     -0.1245
     48  CA        85.0690   65.8790   77.0420 C.3   279  LEU279      0.1561
     49  C         84.5750   66.6540   75.8250 C.2   279  LEU279      0.2260
     50  O         83.4270   67.0820   75.7780 O.2   279  LEU279     -0.2867
     51  CB        84.6900   64.4030   76.8860 C.3   279  LEU279      0.0270
     52  CG        85.4050   63.3890   77.7750 C.3   279  LEU279      0.0019
     53  CD1       84.9090   61.9920   77.4500 C.3   279  LEU279      0.0001
     54  CD2       86.9030   63.4800   77.5520 C.3   279  LEU279      0.0001
     55  N         86.7550   55.4390   74.4750 N.3   285  PHE285     -0.1241
     56  CA        88.1950   55.3280   74.6540 C.3   285  PHE285      0.1605
     57  C         88.8070   56.7210   74.7450 C.2   285  PHE285      0.2264
     58  O         89.8930   56.9750   74.2270 O.2   285  PHE285     -0.2867
     59  CB        88.8390   54.5490   73.5040 C.3   285  PHE285      0.0534
     60  CG        89.8980   53.5810   73.9510 C.ar  285  PHE285     -0.0203
     61  CD1       90.8960   53.9820   74.8370 C.ar  285  PHE285     -0.0042
     62  CD2       89.8920   52.2630   73.4980 C.ar  285  PHE285     -0.0042
     63  CE1       91.8720   53.0860   75.2710 C.ar  285  PHE285     -0.0003
     64  CE2       90.8650   51.3550   73.9230 C.ar  285  PHE285     -0.0003
     65  CZ        91.8550   51.7690   74.8120 C.ar  285  PHE285     -0.0000
     66  N         89.3010   59.8810   77.7180 N.3   287  PHE287     -0.1241
     67  CA        89.2100   60.1900   79.1350 C.3   287  PHE287      0.1605
     68  C         89.4960   61.6600   79.4040 C.2   287  PHE287      0.2264
     69  O         90.3500   62.2650   78.7590 O.2   287  PHE287     -0.2867
     70  CB        90.1730   59.2700   79.8700 C.3   287  PHE287      0.0534
     71  CG        90.1280   57.8570   79.3650 C.ar  287  PHE287     -0.0203
     72  CD1       88.9500   57.1270   79.4270 C.ar  287  PHE287     -0.0042
     73  CD2       91.2490   57.2670   78.7990 C.ar  287  PHE287     -0.0042
     74  CE1       88.8830   55.8240   78.9290 C.ar  287  PHE287     -0.0003
     75  CE2       91.1970   55.9640   78.2980 C.ar  287  PHE287     -0.0003
     76  CZ        90.0120   55.2400   78.3630 C.ar  287  PHE287     -0.0000
     77  N         85.9290   45.9050   74.8480 N.3   327  PHE327     -0.1227
     78  CA        85.4820   46.3940   76.1470 C.3   327  PHE327      0.1736
     79  C         84.8880   47.8040   76.0870 C.2   327  PHE327      0.2595
     80  O         83.8790   48.0950   76.7300 O.2   327  PHE327     -0.2718
     81  CB        86.6480   46.3560   77.1370 C.3   327  PHE327      0.0547
     82  CG        86.2940   46.8320   78.5160 C.ar  327  PHE327     -0.0202
     83  CD1       86.4190   48.1790   78.8560 C.ar  327  PHE327     -0.0042
     84  CD2       85.8380   45.9320   79.4790 C.ar  327  PHE327     -0.0042
     85  CE1       86.0950   48.6270   80.1420 C.ar  327  PHE327     -0.0003
     86  CE2       85.5100   46.3640   80.7680 C.ar  327  PHE327     -0.0003
     87  CZ        85.6390   47.7160   81.1030 C.ar  327  PHE327     -0.0000
     88  N         85.5060   48.6740   75.3030 N.am  328  PHE328     -0.1976
     89  CA        85.0340   50.0420   75.1900 C.3   328  PHE328      0.1639
     90  C         83.8260   50.1890   74.2710 C.2   328  PHE328      0.2290
     91  O         83.0900   51.1700   74.3590 O.2   328  PHE328     -0.2864
     92  CB        86.1810   50.9380   74.7270 C.3   328  PHE328      0.0560
     93  CG        87.4010   50.8400   75.6000 C.ar  328  PHE328     -0.0200
     94  CD1       88.3300   49.8110   75.4130 C.ar  328  PHE328     -0.0042
     95  CD2       87.5980   51.7420   76.6420 C.ar  328  PHE328     -0.0042
     96  CE1       89.4360   49.6830   76.2540 C.ar  328  PHE328     -0.0003
     97  CE2       88.7040   51.6230   77.4930 C.ar  328  PHE328     -0.0003
     98  CZ        89.6230   50.5930   77.2980 C.ar  328  PHE328     -0.0000
     99  N         80.5870   49.4220   76.3430 N.3   331  TYR331     -0.1241
    100  CA        80.1550   50.5100   77.2050 C.3   331  TYR331      0.1605
    101  C         79.6150   51.7580   76.5320 C.2   331  TYR331      0.2264
    102  O         78.7900   52.4500   77.1200 O.2   331  TYR331     -0.2867
    103  CB        81.2830   50.9180   78.1610 C.3   331  TYR331      0.0534
    104  CG        81.4630   49.9710   79.3250 C.ar  331  TYR331     -0.0201
    105  CD1       82.0450   48.7170   79.1460 C.ar  331  TYR331     -0.0009
    106  CD2       81.0090   50.3110   80.6040 C.ar  331  TYR331     -0.0009
    107  CE1       82.1690   47.8230   80.2110 C.ar  331  TYR331      0.0417
    108  CE2       81.1280   49.4230   81.6700 C.ar  331  TYR331      0.0417
    109  CZ        81.7080   48.1830   81.4640 C.ar  331  TYR331      0.1957
    110  OH        81.8300   47.3000   82.5060 O.3   331  TYR331     -0.2866
@<TRIPOS>BOND
     1    62    64   ar
     2    62    60   ar
     3    59    60    1
     4    59    56    1
     5    64    65   ar
     6    60    61   ar
     7    58    57    2
     8    90    91    2
     9    90    89    1
    10    55    56    1
    11    56    57    1
    12    92    89    1
    13    92    93    1
    14    65    63   ar
    15    61    63   ar
    16    77    78    1
    17    89    88    1
    18    88    79   am
    19    94    93   ar
    20    94    96   ar
    21    93    95   ar
    22    50    49    2
    23    49    48    1
    24    79    78    1
    25    79    80    2
    26    78    81    1
    27    96    98   ar
    28    99   100    1
    29   101   102    2
    30   101   100    1
    31    95    97   ar
    32    51    48    1
    33    51    52    1
    34    48    47    1
    35    81    82    1
    36   100   103    1
    37    98    97   ar
    38    53    52    1
    39    54    52    1
    40    66    67    1
    41   103   104    1
    42    75    76   ar
    43    75    73   ar
    44    76    74   ar
    45    82    83   ar
    46    82    84   ar
    47    69    68    2
    48    73    71   ar
    49    83    85   ar
    50    74    72   ar
    51    67    68    1
    52    67    70    1
    53   105   104   ar
    54   105   107   ar
    55   104   106   ar
    56    71    72   ar
    57    71    70    1
    58    84    86   ar
    59    36    35    2
    60    85    87   ar
    61   107   109   ar
    62   106   108   ar
    63    86    87   ar
    64    45    43   ar
    65    45    46   ar
    66    43    40   ar
    67    35    34    1
    68   109   108   ar
    69   109   110    1
    70    37    34    1
    71    37    38    1
    72    34    33    1
    73    46    44   ar
    74    40    38   ar
    75    40    42   ar
    76    38    39   ar
    77    30    28   ar
    78    30    31   ar
    79    32    31    1
    80    28    26   ar
    81    44    42   ar
    82    42    41   ar
    83    31    29   ar
    84    39    41   ar
    85    26    25    1
    86    26    27   ar
    87    29    27   ar
    88    25    22    1
    89    12    11    1
    90    19    18   ar
    91    21    22    1
    92    20    18   ar
    93    18    17    1
    94    10    11   ar
    95    10     8   ar
    96    11     9   ar
    97    22    23    1
    98     8     6   ar
    99     9     7   ar
   100    17    14    1
   101    23    24    2
   102     6     7   ar
   103     6     5    1
   104    14    15    1
   105    14    13    1
   106     5     2    1
   107    15    16    2
   108     4     3    2
   109     2     3    1
   110     2     1    1
