@<TRIPOS>MOLECULE
tmp/2vjbB00.pdb
 160 162 0 0 0
SMALL
GASTEIGER

@<TRIPOS>ATOM
      1  N         87.5710   45.3760   88.7300 N.3    81  TRP81      -0.1241
      2  CA        88.3990   46.5300   88.4150 C.3    81  TRP81       0.1605
      3  C         88.0510   47.7300   89.2890 C.2    81  TRP81       0.2264
      4  O         88.7070   48.7640   89.2010 O.2    81  TRP81      -0.2867
      5  CB        88.2540   46.9200   86.9310 C.3    81  TRP81       0.0550
      6  CG        88.5480   45.8050   85.9740 C.ar   81  TRP81       0.0003
      7  CD1       87.6440   45.1190   85.2140 C.ar   81  TRP81       0.0946
      8  CD2       89.8230   45.1990   85.7230 C.ar   81  TRP81       0.0152
      9  NE1       88.2760   44.1160   84.5080 N.ar   81  TRP81      -0.2442
     10  CE2       89.6120   44.1430   84.8030 C.ar   81  TRP81       0.0810
     11  CE3       91.1230   45.4410   86.1890 C.ar   81  TRP81       0.0012
     12  CZ2       90.6560   43.3270   84.3400 C.ar   81  TRP81       0.0191
     13  CZ3       92.1670   44.6280   85.7270 C.ar   81  TRP81       0.0001
     14  CH2       91.9220   43.5830   84.8120 C.ar   81  TRP81       0.0015
     15  N         96.6610   50.4230   85.4870 N.3   114  GLY114     -0.1210
     16  CA        96.0770   51.2400   84.4410 C.3   114  GLY114      0.1956
     17  C         94.6630   51.6370   84.8350 C.2   114  GLY114      0.2612
     18  O         94.2960   51.5440   86.0040 O.2   114  GLY114     -0.2717
     19  N         93.8640   52.0720   83.8700 N.am  115  GLY115     -0.1942
     20  CA        92.5090   52.4860   84.1770 C.3   115  GLY115      0.2014
     21  C         92.2070   53.8360   83.5530 C.2   115  GLY115      0.2639
     22  O         91.4780   54.6420   84.1250 O.2   115  GLY115     -0.2714
     23  N         92.7940   54.0780   82.3840 N.am  116  GLY116     -0.1954
     24  CA        92.5770   55.3170   81.6540 C.3   116  GLY116      0.1869
     25  C         92.9740   56.6230   82.3210 C.2   116  GLY116      0.2309
     26  O         92.6030   57.6940   81.8420 O.2   116  GLY116     -0.2863
     27  N         91.8660   57.6470   84.9980 N.3   118  TYR118     -0.1227
     28  CA        90.6860   58.1320   85.7250 C.3   118  TYR118      0.1736
     29  C         90.2490   57.1180   86.7880 C.2   118  TYR118      0.2596
     30  O         89.2970   57.3520   87.5290 O.2   118  TYR118     -0.2718
     31  CB        89.5210   58.3970   84.7600 C.3   118  TYR118      0.0548
     32  CG        88.8150   57.1510   84.2520 C.ar  118  TYR118     -0.0200
     33  CD1       87.7410   56.5950   84.9520 C.ar  118  TYR118     -0.0009
     34  CD2       89.2240   56.5300   83.0750 C.ar  118  TYR118     -0.0009
     35  CE1       87.0870   55.4490   84.4870 C.ar  118  TYR118      0.0417
     36  CE2       88.5840   55.3870   82.5980 C.ar  118  TYR118      0.0417
     37  CZ        87.5140   54.8500   83.3070 C.ar  118  TYR118      0.1957
     38  OH        86.8790   53.7230   82.8200 O.3   118  TYR118     -0.2866
     39  N         90.9490   55.9900   86.8550 N.am  119  SER119     -0.1952
     40  CA        90.6320   54.9450   87.8200 C.3   119  SER119      0.1924
     41  C         91.7940   53.9860   87.9930 C.2   119  SER119      0.2314
     42  O         92.8270   54.1140   87.3300 O.2   119  SER119     -0.2863
     43  CB        89.3980   54.1610   87.3720 C.3   119  SER119      0.2116
     44  OG        89.6050   53.5670   86.1040 O.3   119  SER119     -0.2180
     45  N         95.9960   41.9340   91.0010 N.3   127  TYR127     -0.1241
     46  CA        97.3360   42.4980   91.1690 C.3   127  TYR127      0.1605
     47  C         98.0610   41.9230   92.3940 C.2   127  TYR127      0.2264
     48  O         99.1190   42.4150   92.7880 O.2   127  TYR127     -0.2867
     49  CB        97.2880   44.0280   91.2990 C.3   127  TYR127      0.0534
     50  CG        96.6770   44.7660   90.1320 C.ar  127  TYR127     -0.0201
     51  CD1       96.6220   44.1970   88.8600 C.ar  127  TYR127     -0.0009
     52  CD2       96.1690   46.0510   90.3010 C.ar  127  TYR127     -0.0009
     53  CE1       96.0660   44.8910   87.7880 C.ar  127  TYR127      0.0417
     54  CE2       95.6160   46.7570   89.2380 C.ar  127  TYR127      0.0417
     55  CZ        95.5600   46.1750   87.9890 C.ar  127  TYR127      0.1957
     56  OH        94.9600   46.8640   86.9600 O.3   127  TYR127     -0.2866
     57  N        100.0190   48.1080   82.5180 N.3   196  GLU196     -0.1231
     58  CA        99.0750   47.8240   81.4540 C.3   196  GLU196      0.1699
     59  C         98.2100   49.0380   81.1850 C.2   196  GLU196      0.2593
     60  O         97.9180   49.8120   82.0940 O.2   196  GLU196     -0.2718
     61  CB        98.2090   46.6210   81.8520 C.3   196  GLU196      0.0402
     62  CG        97.2630   46.0990   80.7760 C.3   196  GLU196      0.1161
     63  CD        95.8960   46.7600   80.8180 C.2   196  GLU196      0.3649
     64  OE1       95.5190   47.2820   81.8930 O.co2 196  GLU196     -0.2457
     65  OE2       95.1890   46.7430   79.7860 O.co2 196  GLU196     -0.2457
     66  N         97.8210   49.2000   79.9240 N.am  197  SER197     -0.1938
     67  CA        96.9690   50.3040   79.4870 C.3   197  SER197      0.2055
     68  C         97.5670   51.6640   79.8770 C.2   197  SER197      0.2642
     69  O         98.6360   52.0240   79.3930 O.2   197  SER197     -0.2714
     70  CB        95.5530   50.1320   80.0680 C.3   197  SER197      0.2130
     71  OG        94.5840   50.7540   79.2350 O.3   197  SER197     -0.2179
     72  N         96.8800   52.4220   80.7320 N.am  198  ALA198     -0.1977
     73  CA        97.3890   53.7270   81.1560 C.3   198  ALA198      0.1597
     74  C         98.6840   53.5130   81.9210 C.2   198  ALA198      0.2287
     75  O         99.5170   54.4100   82.0050 O.2   198  ALA198     -0.2864
     76  CB        96.3730   54.4470   82.0400 C.3   198  ALA198      0.0319
     77  N         94.7240   58.7630   73.3870 N.3   230  TRP230     -0.1241
     78  CA        93.9850   59.0510   74.6130 C.3   230  TRP230      0.1605
     79  C         94.8650   59.3010   75.8330 C.2   230  TRP230      0.2264
     80  O         94.3830   59.7740   76.8650 O.2   230  TRP230     -0.2867
     81  CB        93.0510   57.8910   74.9300 C.3   230  TRP230      0.0550
     82  CG        93.7510   56.5710   74.8770 C.ar  230  TRP230      0.0003
     83  CD1       93.7850   55.7020   73.8210 C.ar  230  TRP230      0.0946
     84  CD2       94.5550   55.9840   75.9070 C.ar  230  TRP230      0.0152
     85  NE1       94.5610   54.6080   74.1340 N.ar  230  TRP230     -0.2442
     86  CE2       95.0460   54.7560   75.4060 C.ar  230  TRP230      0.0810
     87  CE3       94.9110   56.3790   77.2030 C.ar  230  TRP230      0.0012
     88  CZ2       95.8750   53.9170   76.1570 C.ar  230  TRP230      0.0191
     89  CZ3       95.7370   55.5460   77.9500 C.ar  230  TRP230      0.0001
     90  CH2       96.2100   54.3270   77.4220 C.ar  230  TRP230      0.0015
     91  N         86.7550   55.4390   74.4750 N.3   285  PHE285     -0.1241
     92  CA        88.1950   55.3280   74.6540 C.3   285  PHE285      0.1605
     93  C         88.8070   56.7210   74.7450 C.2   285  PHE285      0.2264
     94  O         89.8930   56.9750   74.2270 O.2   285  PHE285     -0.2867
     95  CB        88.8390   54.5490   73.5040 C.3   285  PHE285      0.0534
     96  CG        89.8980   53.5810   73.9510 C.ar  285  PHE285     -0.0203
     97  CD1       90.8960   53.9820   74.8370 C.ar  285  PHE285     -0.0042
     98  CD2       89.8920   52.2630   73.4980 C.ar  285  PHE285     -0.0042
     99  CE1       91.8720   53.0860   75.2710 C.ar  285  PHE285     -0.0003
    100  CE2       90.8650   51.3550   73.9230 C.ar  285  PHE285     -0.0003
    101  CZ        91.8550   51.7690   74.8120 C.ar  285  PHE285     -0.0000
    102  N         89.3010   59.8810   77.7180 N.3   287  PHE287     -0.1241
    103  CA        89.2100   60.1900   79.1350 C.3   287  PHE287      0.1605
    104  C         89.4960   61.6600   79.4040 C.2   287  PHE287      0.2264
    105  O         90.3500   62.2650   78.7590 O.2   287  PHE287     -0.2867
    106  CB        90.1730   59.2700   79.8700 C.3   287  PHE287      0.0534
    107  CG        90.1280   57.8570   79.3650 C.ar  287  PHE287     -0.0203
    108  CD1       88.9500   57.1270   79.4270 C.ar  287  PHE287     -0.0042
    109  CD2       91.2490   57.2670   78.7990 C.ar  287  PHE287     -0.0042
    110  CE1       88.8830   55.8240   78.9290 C.ar  287  PHE287     -0.0003
    111  CE2       91.1970   55.9640   78.2980 C.ar  287  PHE287     -0.0003
    112  CZ        90.0120   55.2400   78.3630 C.ar  287  PHE287     -0.0000
    113  N         85.9290   45.9050   74.8480 N.3   327  PHE327     -0.1227
    114  CA        85.4820   46.3940   76.1470 C.3   327  PHE327      0.1736
    115  C         84.8880   47.8040   76.0870 C.2   327  PHE327      0.2595
    116  O         83.8790   48.0950   76.7300 O.2   327  PHE327     -0.2718
    117  CB        86.6480   46.3560   77.1370 C.3   327  PHE327      0.0547
    118  CG        86.2940   46.8320   78.5160 C.ar  327  PHE327     -0.0202
    119  CD1       86.4190   48.1790   78.8560 C.ar  327  PHE327     -0.0042
    120  CD2       85.8380   45.9320   79.4790 C.ar  327  PHE327     -0.0042
    121  CE1       86.0950   48.6270   80.1420 C.ar  327  PHE327     -0.0003
    122  CE2       85.5100   46.3640   80.7680 C.ar  327  PHE327     -0.0003
    123  CZ        85.6390   47.7160   81.1030 C.ar  327  PHE327     -0.0000
    124  N         85.5060   48.6740   75.3030 N.am  328  PHE328     -0.1976
    125  CA        85.0340   50.0420   75.1900 C.3   328  PHE328      0.1639
    126  C         83.8260   50.1890   74.2710 C.2   328  PHE328      0.2290
    127  O         83.0900   51.1700   74.3590 O.2   328  PHE328     -0.2864
    128  CB        86.1810   50.9380   74.7270 C.3   328  PHE328      0.0560
    129  CG        87.4010   50.8400   75.6000 C.ar  328  PHE328     -0.0200
    130  CD1       88.3300   49.8110   75.4130 C.ar  328  PHE328     -0.0042
    131  CD2       87.5980   51.7420   76.6420 C.ar  328  PHE328     -0.0042
    132  CE1       89.4360   49.6830   76.2540 C.ar  328  PHE328     -0.0003
    133  CE2       88.7040   51.6230   77.4930 C.ar  328  PHE328     -0.0003
    134  CZ        89.6230   50.5930   77.2980 C.ar  328  PHE328     -0.0000
    135  N         90.8030   43.5350   76.5230 N.3   437  HIS437     -0.1226
    136  CA        91.7760   44.5090   76.9880 C.3   437  HIS437      0.1752
    137  C         91.9850   44.2950   78.4920 C.2   437  HIS437      0.2597
    138  O         91.0300   44.3640   79.2670 O.2   437  HIS437     -0.2718
    139  CB        91.2150   45.9090   76.7190 C.3   437  HIS437      0.0759
    140  CG        92.1050   47.0300   77.1540 C.ar  437  HIS437      0.0818
    141  ND1       93.2510   47.3830   76.4720 N.ar  437  HIS437     -0.2268
    142  CD2       91.9870   47.9170   78.1710 C.ar  437  HIS437      0.1154
    143  CE1       93.7980   48.4410   77.0460 C.ar  437  HIS437      0.1986
    144  NE2       93.0500   48.7860   78.0790 N.ar  437  HIS437     -0.2212
    145  N         93.2230   44.0060   78.8920 N.am  438  GLY438     -0.1942
    146  CA        93.5280   43.8040   80.3000 C.3   438  GLY438      0.2014
    147  C         93.4870   42.3840   80.8490 C.2   438  GLY438      0.2638
    148  O         93.9090   42.1430   81.9840 O.2   438  GLY438     -0.2714
    149  N         92.9970   41.4300   80.0670 N.am  439  TYR439     -0.1973
    150  CA        92.9150   40.0700   80.5760 C.3   439  TYR439      0.1639
    151  C         94.1500   39.1970   80.4280 C.2   439  TYR439      0.2290
    152  O         94.0710   37.9760   80.5600 O.2   439  TYR439     -0.2864
    153  CB        91.6630   39.3700   80.0240 C.3   439  TYR439      0.0560
    154  CG        90.4260   39.8460   80.7540 C.ar  439  TYR439     -0.0198
    155  CD1       89.9260   41.1360   80.5520 C.ar  439  TYR439     -0.0009
    156  CD2       89.8450   39.0680   81.7570 C.ar  439  TYR439     -0.0009
    157  CE1       88.8880   41.6420   81.3380 C.ar  439  TYR439      0.0417
    158  CE2       88.8120   39.5620   82.5500 C.ar  439  TYR439      0.0417
    159  CZ        88.3400   40.8520   82.3400 C.ar  439  TYR439      0.1957
    160  OH        87.3510   41.3560   83.1530 O.3   439  TYR439     -0.2866
@<TRIPOS>BOND
     1    77    78    1
     2    98   100   ar
     3    98    96   ar
     4    95    96    1
     5    95    92    1
     6    83    85   ar
     7    83    82   ar
     8   100   101   ar
     9    96    97   ar
    10    85    86   ar
    11    94    93    2
    12   126   127    2
    13   126   125    1
    14    91    92    1
    15    78    81    1
    16    78    79    1
    17    92    93    1
    18   128   125    1
    19   128   129    1
    20   101    99   ar
    21    97    99   ar
    22   113   114    1
    23    82    81    1
    24    82    84   ar
    25   125   124    1
    26   124   115   am
    27    86    84   ar
    28    86    88   ar
    29   130   129   ar
    30   130   132   ar
    31   129   131   ar
    32    79    80    2
    33    84    87   ar
    34   115   114    1
    35   115   116    2
    36   114   117    1
    37    88    90   ar
    38   132   134   ar
    39   141   143   ar
    40   141   140   ar
    41   135   136    1
    42   131   133   ar
    43   139   136    1
    44   139   140    1
    45   136   137    1
    46   143   144   ar
    47   117   118    1
    48   140   142   ar
    49    87    89   ar
    50   134   133   ar
    51    90    89   ar
    52   102   103    1
    53   144   142   ar
    54   111   112   ar
    55   111   109   ar
    56   112   110   ar
    57   137   145   am
    58   137   138    2
    59   118   119   ar
    60   118   120   ar
    61   105   104    2
    62   109   107   ar
    63   119   121   ar
    64   145   146    1
    65   110   108   ar
    66   103   104    1
    67   103   106    1
    68    71    70    1
    69   107   108   ar
    70   107   106    1
    71    69    68    2
    72   120   122   ar
    73    67    68    1
    74    67    66    1
    75    67    70    1
    76    65    63   ar
    77    68    72   am
    78    66    59   am
    79   153   150    1
    80   153   154    1
    81   149   150    1
    82   149   147   am
    83   121   123   ar
    84   146   147    1
    85   151   152    2
    86   151   150    1
    87   155   154   ar
    88   155   157   ar
    89    72    73    1
    90   154   156   ar
    91   122   123   ar
    92    62    63    1
    93    62    61    1
    94    63    64   ar
    95   147   148    2
    96    73    74    1
    97    73    76    1
    98    59    58    1
    99    59    60    2
   100   157   159   ar
   101    58    61    1
   102    58    57    1
   103    24    25    1
   104    24    23    1
   105   156   158   ar
   106    26    25    2
   107    74    75    2
   108   159   158   ar
   109   159   160    1
   110    23    21   am
   111    36    34   ar
   112    36    37   ar
   113    38    37    1
   114    34    32   ar
   115    37    35   ar
   116    21    22    2
   117    21    20    1
   118    19    20    1
   119    19    17   am
   120    32    31    1
   121    32    33   ar
   122    12    10   ar
   123    12    14   ar
   124    16    17    1
   125    16    15    1
   126    35    33   ar
   127     9    10   ar
   128     9     7   ar
   129    31    28    1
   130    10     8   ar
   131    14    13   ar
   132    17    18    2
   133    27    28    1
   134     7     6   ar
   135     8     6   ar
   136     8    11   ar
   137    28    29    1
   138    13    11   ar
   139     6     5    1
   140    44    43    1
   141    29    39   am
   142    29    30    2
   143    39    40    1
   144     5     2    1
   145    56    55    1
   146    42    41    2
   147    43    40    1
   148    53    55   ar
   149    53    51   ar
   150    40    41    1
   151    55    54   ar
   152     2     1    1
   153     2     3    1
   154    51    50   ar
   155     4     3    2
   156    54    52   ar
   157    50    52   ar
   158    50    49    1
   159    45    46    1
   160    46    49    1
   161    46    47    1
   162    47    48    2
