@<TRIPOS>MOLECULE
tmp/2vjhA01.pdb
 121 116 0 0 0
SMALL
GASTEIGER

@<TRIPOS>ATOM
      1  N          8.9870   17.9090   25.1030 N.3    43  LYS43      -0.1231
      2  CA         8.9550   16.6410   24.3500 C.3    43  LYS43       0.1693
      3  C          8.1230   16.7800   23.0920 C.2    43  LYS43       0.2591
      4  O          8.5090   16.2840   22.0390 O.2    43  LYS43      -0.2718
      5  CB         8.4140   15.4810   25.2080 C.3    43  LYS43       0.0285
      6  CG         9.1900   15.1920   26.4770 C.3    43  LYS43       0.0035
      7  CD        10.6700   14.9660   26.2130 C.3    43  LYS43       0.0206
      8  CE        11.3200   14.2170   27.3740 C.3    43  LYS43       0.1093
      9  NZ        12.7920   14.1150   27.1700 N.3    43  LYS43      -0.1314
     10  N          6.9960   17.4860   23.2010 N.am   44  LEU44      -0.1980
     11  CA         6.0980   17.6800   22.0650 C.3    44  LEU44       0.1596
     12  C          6.7300   18.5900   21.0210 C.2    44  LEU44       0.2287
     13  O          6.6480   18.3080   19.8220 O.2    44  LEU44      -0.2864
     14  CB         4.7470   18.2380   22.5500 C.3    44  LEU44       0.0297
     15  CG         3.6190   18.4600   21.5460 C.3    44  LEU44       0.0022
     16  CD1        3.3090   17.1800   20.7110 C.3    44  LEU44       0.0001
     17  CD2        2.3540   18.9850   22.2770 C.3    44  LEU44       0.0001
     18  N          9.2910   16.5100   19.2260 N.3    47  GLY47      -0.1225
     19  CA         8.8400   15.3120   18.5730 C.3    47  GLY47       0.1811
     20  C          7.6110   15.4620   17.7170 C.2    47  GLY47       0.2280
     21  O          7.1160   14.4720   17.2150 O.2    47  GLY47      -0.2866
     22  N          6.7960   13.4540   14.0370 N.3    50  ALA50      -0.1231
     23  CA         6.4290   12.0470   14.0800 C.3    50  ALA50       0.1694
     24  C          5.0730   11.8380   14.7500 C.2    50  ALA50       0.2591
     25  O          4.3040   10.9850   14.3110 O.2    50  ALA50      -0.2718
     26  CB         7.5510   11.1990   14.7860 C.3    50  ALA50       0.0304
     27  N          4.7590   12.6370   15.7720 N.am   51  VAL51      -0.1980
     28  CA         3.4490   12.5730   16.4200 C.3    51  VAL51       0.1595
     29  C          2.3240   12.9260   15.4360 C.2    51  VAL51       0.2287
     30  O          1.3170   12.2150   15.3300 O.2    51  VAL51      -0.2864
     31  CB         3.3760   13.4790   17.6990 C.3    51  VAL51       0.0276
     32  CG1        1.9290   13.5490   18.2770 C.3    51  VAL51       0.0022
     33  CG2        4.3420   12.9790   18.7540 C.3    51  VAL51       0.0022
     34  N          1.9910   10.1130   12.5850 N.3    54  GLU54      -0.1245
     35  CA         1.2640    8.9590   13.1210 C.3    54  GLU54       0.1567
     36  C         -0.2380    9.2110   13.2770 C.2    54  GLU54       0.2260
     37  O         -1.0510    8.3680   12.9300 O.2    54  GLU54      -0.2867
     38  CB         1.8350    8.5120   14.4790 C.3    54  GLU54       0.0388
     39  CG         3.1870    7.8970   14.3890 C.3    54  GLU54       0.1160
     40  CD         3.6090    7.1020   15.6210 C.2    54  GLU54       0.3649
     41  OE1        2.9110    7.1000   16.6720 O.co2  54  GLU54      -0.2457
     42  OE2        4.6660    6.4620   15.5070 O.co2  54  GLU54      -0.2457
     43  N         -3.1460    9.3860   19.8060 N.3   134  THR134     -0.1218
     44  CA        -2.0180   10.1240   20.3590 C.3   134  THR134      0.1862
     45  C         -1.9000    9.9550   21.8900 C.2   134  THR134      0.2287
     46  O         -0.8090    9.7320   22.4250 O.2   134  THR134     -0.2866
     47  CB        -2.1030   11.6080   19.9420 C.3   134  THR134      0.1770
     48  OG1       -2.1560   11.6990   18.5070 O.3   134  THR134     -0.2211
     49  CG2       -0.9100   12.4100   20.4550 C.3   134  THR134      0.0375
     50  N         -0.9830    6.1450   22.6620 N.3   137  ARG137     -0.1231
     51  CA         0.3410    5.7780   22.1350 C.3   137  ARG137      0.1694
     52  C          1.4930    6.1940   23.0750 C.2   137  ARG137      0.2592
     53  O          2.4610    5.4360   23.2760 O.2   137  ARG137     -0.2718
     54  CB         0.5010    6.3900   20.7390 C.3   137  ARG137      0.0321
     55  CG         1.8810    6.4000   20.1580 C.3   137  ARG137      0.0489
     56  CD         2.4120    5.0230   19.8640 C.3   137  ARG137      0.2205
     57  NE         3.3560    5.0630   18.7610 N.pl3 137  ARG137     -0.0865
     58  CZ         4.1990    4.0880   18.4360 C.cat 137  ARG137      0.5346
     59  NH1        4.2640    2.9680   19.1360 N.pl3 137  ARG137      0.1354
     60  NH2        4.9790    4.2330   17.3740 N.pl3 137  ARG137      0.1354
     61  N          1.3800    7.3910   23.6490 N.am  138  ALA138     -0.1966
     62  CA         2.3780    7.9180   24.5840 C.3   138  ALA138      0.1728
     63  C          2.5480    7.0500   25.8430 C.2   138  ALA138      0.2616
     64  O          1.5900    6.4870   26.3590 O.2   138  ALA138     -0.2715
     65  CB         2.0210    9.3520   24.9770 C.3   138  ALA138      0.0334
     66  N          3.7640    6.9490   26.3460 N.am  139  CYS139     -0.1954
     67  CA         3.9950    6.2390   27.5910 C.3   139  CYS139      0.1843
     68  C          5.1480    6.8320   28.3970 C.2   139  CYS139      0.2625
     69  O          6.0440    7.4640   27.8440 O.2   139  CYS139     -0.2714
     70  CB         4.2410    4.7390   27.3270 C.3   139  CYS139      0.0997
     71  SG         5.9360    4.3520   26.8670 S.3   139  CYS139     -0.0797
     72  N          5.0780    6.6320   29.7120 N.am  140  ALA140     -0.1964
     73  CA         6.1660    6.9310   30.6340 C.3   140  ALA140      0.1713
     74  C          6.7770    5.6070   31.0690 C.2   140  ALA140      0.2458
     75  O          6.0880    4.5920   31.1450 O.2   140  ALA140     -0.2730
     76  CB         5.6640    7.7240   31.8640 C.3   140  ALA140      0.0333
     77  N          8.0760    5.6070   31.3810 N.am  141  PRO141     -0.2716
     78  CA         8.9850    6.7460   31.3510 C.3   141  PRO141      0.1536
     79  C          9.6450    7.0470   29.9910 C.2   141  PRO141      0.2598
     80  O         10.4060    8.0070   29.8960 O.2   141  PRO141     -0.2715
     81  CB        10.0510    6.3290   32.3720 C.3   141  PRO141      0.0310
     82  CG        10.1320    4.8290   32.1660 C.3   141  PRO141      0.0237
     83  CD         8.7450    4.3860   31.8880 C.3   141  PRO141      0.0939
     84  N          9.3560    6.2590   28.9550 N.am  142  ARG142     -0.1964
     85  CA        10.0820    6.3650   27.7020 C.3   142  ARG142      0.1729
     86  C          9.9970    7.7440   27.0630 C.2   142  ARG142      0.2616
     87  O         10.9980    8.2830   26.6480 O.2   142  ARG142     -0.2715
     88  CB         9.5760    5.3460   26.7050 C.3   142  ARG142      0.0348
     89  CG        10.3490    5.3360   25.4010 C.3   142  ARG142      0.0492
     90  CD         9.6650    4.4850   24.3850 C.3   142  ARG142      0.2205
     91  NE        10.4540    4.3840   23.1690 N.pl3 142  ARG142     -0.0865
     92  CZ        10.3410    5.1780   22.1060 C.cat 142  ARG142      0.5346
     93  NH1        9.4570    6.1560   22.0510 N.pl3 142  ARG142      0.1354
     94  NH2       11.1160    4.9630   21.0720 N.pl3 142  ARG142      0.1354
     95  N          8.7870    8.2830   26.9440 N.am  143  ASP143     -0.1957
     96  CA         8.5520    9.5040   26.1790 C.3   143  ASP143      0.1840
     97  C          8.6570   10.7350   27.0540 C.2   143  ASP143      0.2621
     98  O          9.0660   11.7830   26.5840 O.2   143  ASP143     -0.2715
     99  CB         7.1730    9.4740   25.5080 C.3   143  ASP143      0.1450
    100  CG         6.9910    8.2690   24.5880 C.2   143  ASP143      0.3671
    101  OD1        7.9760    7.8700   23.9080 O.co2 143  ASP143     -0.2456
    102  OD2        5.8450    7.7510   24.5180 O.co2 143  ASP143     -0.2456
    103  N          8.2820   10.5820   28.3200 N.am  144  MET144     -0.1977
    104  CA         8.3380   11.6360   29.3170 C.3   144  MET144      0.1605
    105  C          8.0590   10.9590   30.6610 C.2   144  MET144      0.2287
    106  O          7.6690    9.7900   30.7060 O.2   144  MET144     -0.2864
    107  CB         7.2690   12.7070   29.0200 C.3   144  MET144      0.0413
    108  CG         5.8370   12.1730   28.9650 C.3   144  MET144      0.0598
    109  SD         4.6770   13.3760   28.2880 S.3   144  MET144     -0.1393
    110  CE         4.9700   13.1250   26.5410 C.3   144  MET144      0.0692
    111  N          0.0590   15.9840   29.4730 N.3   152  PHE152     -0.1241
    112  CA        -0.1340   15.7480   28.0270 C.3   152  PHE152      0.1605
    113  C         -1.4970   15.1340   27.7370 C.2   152  PHE152      0.2264
    114  O         -2.2540   15.6520   26.9330 O.2   152  PHE152     -0.2867
    115  CB         0.9800   14.8230   27.5470 C.3   152  PHE152      0.0534
    116  CG         0.9850   14.5330   26.0700 C.ar  152  PHE152     -0.0203
    117  CD1        1.0810   15.5540   25.1330 C.ar  152  PHE152     -0.0042
    118  CD2        0.9720   13.2240   25.6130 C.ar  152  PHE152     -0.0042
    119  CE1        1.1370   15.2680   23.7740 C.ar  152  PHE152     -0.0003
    120  CE2        1.0210   12.9310   24.2520 C.ar  152  PHE152     -0.0003
    121  CZ         1.1210   13.9500   23.3270 C.ar  152  PHE152     -0.0000
@<TRIPOS>BOND
     1    34    35    1
     2    37    36    2
     3    35    36    1
     4    35    38    1
     5    22    23    1
     6    23    24    1
     7    23    26    1
     8    25    24    2
     9    39    38    1
    10    39    40    1
    11    24    27   am
    12    30    29    2
    13    29    28    1
    14    42    40   ar
    15    40    41   ar
    16    27    28    1
    17    28    31    1
    18    21    20    2
    19    60    58    1
    20    31    32    1
    21    31    33    1
    22    20    19    1
    23    58    57    2
    24    58    59    1
    25    48    47    1
    26    19    18    1
    27    57    56    1
    28    43    44    1
    29    13    12    2
    30    56    55    1
    31    47    44    1
    32    47    49    1
    33    55    54    1
    34    44    45    1
    35    16    15    1
    36    54    51    1
    37    12    11    1
    38    94    92    1
    39    15    17    1
    40    15    14    1
    41    45    46    2
    42     4     3    2
    43    93    92    1
    44    11    14    1
    45    11    10    1
    46    92    91    2
    47    51    50    1
    48    51    52    1
    49    52    53    2
    50    52    61   am
    51     3    10   am
    52     3     2    1
    53    91    90    1
    54   121   119   ar
    55   121   120   ar
    56    61    62    1
    57   119   117   ar
    58   101   100   ar
    59   120   118   ar
    60     2     1    1
    61     2     5    1
    62    90    89    1
    63   102   100   ar
    64    62    65    1
    65    62    63    1
    66   100    99    1
    67   117   116   ar
    68     5     6    1
    69    89    88    1
    70    99    96    1
    71   118   116   ar
    72    63    66   am
    73    63    64    2
    74   116   115    1
    75    96    95    1
    76    96    97    1
    77     7     6    1
    78     7     8    1
    79    66    67    1
    80   110   109    1
    81    98    97    2
    82    87    86    2
    83    88    85    1
    84    71    70    1
    85   114   113    2
    86    95    86   am
    87    97   103   am
    88    86    85    1
    89     9     8    1
    90    70    67    1
    91   115   112    1
    92    67    68    1
    93    85    84    1
    94   113   112    1
    95    69    68    2
    96   112   111    1
    97   109   108    1
    98   103   104    1
    99    68    72   am
   100    84    79   am
   101   108   107    1
   102   107   104    1
   103   104   105    1
   104    72    73    1
   105    80    79    2
   106    79    78    1
   107    73    74    1
   108    73    76    1
   109   105   106    2
   110    74    75    2
   111    74    77   am
   112    78    77    1
   113    78    81    1
   114    77    83    1
   115    83    82    1
   116    82    81    1
