@<TRIPOS>MOLECULE
tmp/2vjhB01.pdb
 205 192 0 0 0
SMALL
GASTEIGER

@<TRIPOS>ATOM
      1  N         -0.9200   61.0630   46.7380 N.3    56  VAL56      -0.1245
      2  CA        -1.8900   62.1310   46.4890 C.3    56  VAL56       0.1561
      3  C         -1.5700   63.3580   47.3520 C.2    56  VAL56       0.2260
      4  O         -1.5430   64.4890   46.8540 O.2    56  VAL56      -0.2867
      5  CB        -3.3500   61.6170   46.6430 C.3    56  VAL56       0.0252
      6  CG1       -4.3720   62.7630   46.4810 C.3    56  VAL56       0.0019
      7  CG2       -3.6110   60.4830   45.6160 C.3    56  VAL56       0.0019
      8  N          1.5590   65.0240   45.8050 N.3    59  MET59      -0.1245
      9  CA         1.1410   65.7640   44.6420 C.3    59  MET59       0.1570
     10  C          0.5610   67.1280   45.0580 C.2    59  MET59       0.2261
     11  O          0.8530   68.1590   44.4370 O.2    59  MET59      -0.2867
     12  CB         0.1200   64.9330   43.8580 C.3    59  MET59       0.0387
     13  CG        -0.5020   65.6260   42.6450 C.3    59  MET59       0.0595
     14  SD        -2.0140   64.7930   42.1010 S.3    59  MET59      -0.1393
     15  CE        -3.1260   65.1460   43.4830 C.3    59  MET59       0.0692
     16  N         -4.0520   72.7930   43.5430 N.3    66  LEU66      -0.1245
     17  CA        -5.0090   71.6910   43.4170 C.3    66  LEU66       0.1561
     18  C         -6.1280   71.6920   44.4620 C.2    66  LEU66       0.2260
     19  O         -7.1960   71.1670   44.2080 O.2    66  LEU66      -0.2867
     20  CB        -4.2680   70.3490   43.4840 C.3    66  LEU66       0.0270
     21  CG        -3.4090   69.9720   42.2830 C.3    66  LEU66       0.0019
     22  CD1       -2.4160   68.8330   42.6570 C.3    66  LEU66       0.0001
     23  CD2       -4.3230   69.5590   41.0980 C.3    66  LEU66       0.0001
     24  N         -8.6180   68.9640   43.1090 N.3    72  CYS72      -0.1235
     25  CA        -8.7900   68.1890   44.3410 C.3    72  CYS72       0.1677
     26  C         -9.6010   68.9520   45.4060 C.2    72  CYS72       0.2270
     27  O         -9.6870   68.5270   46.5610 O.2    72  CYS72      -0.2867
     28  CB        -7.4300   67.7700   44.9230 C.3    72  CYS72       0.0956
     29  SG        -6.6410   66.4380   44.0490 S.3    72  CYS72      -0.0801
     30  N        -15.4420   65.5320   47.6670 N.3    76  ARG76      -0.1231
     31  CA       -15.8440   64.6660   46.5720 C.3    76  ARG76       0.1694
     32  C        -14.7070   64.4520   45.5660 C.2    76  ARG76       0.2591
     33  O        -14.4520   63.3360   45.1430 O.2    76  ARG76      -0.2718
     34  CB       -17.0960   65.2240   45.8570 C.3    76  ARG76       0.0321
     35  CG       -17.6260   64.2710   44.8010 C.3    76  ARG76       0.0489
     36  CD       -18.7450   64.8760   43.9890 C.3    76  ARG76       0.2205
     37  NE       -18.2760   66.0410   43.2370 N.pl3  76  ARG76      -0.0865
     38  CZ       -17.6170   65.9960   42.0750 C.cat  76  ARG76       0.5346
     39  NH1      -17.3370   64.8270   41.4810 N.pl3  76  ARG76       0.1354
     40  NH2      -17.2480   67.1400   41.4950 N.pl3  76  ARG76       0.1354
     41  N        -14.0320   65.5240   45.1630 N.am   77  ARG77      -0.1980
     42  CA       -12.9050   65.3920   44.2230 C.3    77  ARG77       0.1597
     43  C        -11.7010   64.7440   44.8620 C.2    77  ARG77       0.2287
     44  O        -11.0470   63.9020   44.2390 O.2    77  ARG77      -0.2864
     45  CB       -12.4900   66.7410   43.6520 C.3    77  ARG77       0.0334
     46  CG       -13.5260   67.3630   42.7450 C.3    77  ARG77       0.0492
     47  CD       -12.9030   68.4670   41.9050 C.3    77  ARG77       0.2205
     48  NE       -13.9020   69.1610   41.1090 N.pl3  77  ARG77      -0.0865
     49  CZ       -14.5770   70.2500   41.5000 C.cat  77  ARG77       0.5346
     50  NH1      -14.3480   70.8140   42.6820 N.pl3  77  ARG77       0.1354
     51  NH2      -15.4870   70.8090   40.6880 N.pl3  77  ARG77       0.1354
     52  N        -12.3250   61.0920   44.8680 N.3    80  ALA80      -0.1231
     53  CA       -12.1900   60.5560   43.5140 C.3    80  ALA80       0.1694
     54  C        -10.7330   60.3580   43.1160 C.2    80  ALA80       0.2592
     55  O        -10.3750   59.3520   42.5000 O.2    80  ALA80      -0.2718
     56  CB       -12.8870   61.4530   42.4930 C.3    80  ALA80       0.0304
     57  N         -9.8950   61.3150   43.4720 N.am   81  CYS81      -0.1970
     58  CA        -8.4880   61.2220   43.1570 C.3    81  CYS81       0.1712
     59  C         -7.7940   60.1010   43.9340 C.2    81  CYS81       0.2296
     60  O         -7.0300   59.3330   43.3520 O.2    81  CYS81      -0.2864
     61  CB        -7.7940   62.5670   43.4210 C.3    81  CYS81       0.0983
     62  SG        -6.0450   62.5530   43.0520 S.3    81  CYS81      -0.0798
     63  N         -9.2480   57.4950   44.9770 N.3    83  ARG83      -0.1231
     64  CA        -9.7820   56.2950   44.3620 C.3    83  ARG83       0.1694
     65  C         -9.0130   55.9330   43.1000 C.2    83  ARG83       0.2592
     66  O         -8.6470   54.7750   42.9100 O.2    83  ARG83      -0.2718
     67  CB       -11.2740   56.4710   44.0430 C.3    83  ARG83       0.0321
     68  CG       -11.9330   55.1860   43.5630 C.3    83  ARG83       0.0489
     69  CD       -13.1160   55.4100   42.6150 C.3    83  ARG83       0.2205
     70  NE       -12.7590   56.3900   41.5820 N.pl3  83  ARG83      -0.0865
     71  CZ       -13.5980   56.8270   40.6530 C.cat  83  ARG83       0.5346
     72  NH1      -14.8350   56.3340   40.5990 N.pl3  83  ARG83       0.1354
     73  NH2      -13.1940   57.7250   39.7700 N.pl3  83  ARG83       0.1354
     74  N         -8.7770   56.9170   42.2410 N.am   84  ASP84      -0.1960
     75  CA        -7.9820   56.7120   41.0350 C.3    84  ASP84       0.1840
     76  C         -6.5570   56.2770   41.3240 C.2    84  ASP84       0.2622
     77  O         -6.0170   55.4350   40.6080 O.2    84  ASP84      -0.2715
     78  CB        -7.9620   57.9640   40.1680 C.3    84  ASP84       0.1450
     79  CG        -9.2670   58.1980   39.4700 C.2    84  ASP84       0.3671
     80  OD1      -10.2290   57.4510   39.7430 O.co2  84  ASP84      -0.2456
     81  OD2       -9.3210   59.1180   38.6360 O.co2  84  ASP84      -0.2456
     82  N         -5.9430   56.8680   42.3420 N.am   85  GLY85      -0.1954
     83  CA        -4.6100   56.4420   42.7820 C.3    85  GLY85       0.1869
     84  C         -4.6010   54.9600   43.1130 C.2    85  GLY85       0.2309
     85  O         -3.7040   54.2360   42.7020 O.2    85  GLY85      -0.2863
     86  N         -6.8440   52.6520   42.0800 N.3    87  ILE87      -0.1231
     87  CA        -7.1310   51.8920   40.8690 C.3    87  ILE87       0.1692
     88  C         -5.8510   51.6250   40.0680 C.2    87  ILE87       0.2591
     89  O         -5.5800   50.4850   39.6880 O.2    87  ILE87      -0.2718
     90  CB        -8.1940   52.5760   39.9850 C.3    87  ILE87       0.0266
     91  CG1       -9.5750   52.4400   40.6420 C.3    87  ILE87       0.0019
     92  CG2       -8.1910   51.9820   38.5670 C.3    87  ILE87       0.0020
     93  CD1      -10.6570   53.3580   40.0630 C.3    87  ILE87       0.0001
     94  N         -5.0590   52.6710   39.8390 N.am   88  VAL88      -0.1980
     95  CA        -3.8250   52.5230   39.1050 C.3    88  VAL88       0.1595
     96  C         -2.8750   51.5710   39.8250 C.2    88  VAL88       0.2287
     97  O         -2.3000   50.6960   39.1940 O.2    88  VAL88      -0.2864
     98  CB        -3.1550   53.8710   38.8720 C.3    88  VAL88       0.0276
     99  CG1       -1.7390   53.6870   38.3520 C.3    88  VAL88       0.0022
    100  CG2       -4.0000   54.7170   37.9070 C.3    88  VAL88       0.0022
    101  N         -3.6070   49.2030   41.9910 N.3    90  ARG90      -0.1231
    102  CA        -4.1900   47.8800   41.8910 C.3    90  ARG90       0.1694
    103  C         -3.8570   47.2020   40.5410 C.2    90  ARG90       0.2592
    104  O         -3.3590   46.0720   40.5230 O.2    90  ARG90      -0.2718
    105  CB        -5.6940   47.9780   42.1310 C.3    90  ARG90       0.0321
    106  CG        -6.3840   46.6560   42.2120 C.3    90  ARG90       0.0489
    107  CD        -7.7630   46.7630   42.8200 C.3    90  ARG90       0.2205
    108  NE        -8.6700   47.7190   42.1810 N.pl3  90  ARG90      -0.0865
    109  CZ        -9.3830   47.5080   41.0710 C.cat  90  ARG90       0.5346
    110  NH1       -9.2760   46.3910   40.3820 N.pl3  90  ARG90       0.1354
    111  NH2      -10.1880   48.4590   40.6270 N.pl3  90  ARG90       0.1354
    112  N         -4.0790   47.8960   39.4270 N.am   91  TYR91      -0.1976
    113  CA        -3.6890   47.3620   38.1130 C.3    91  TYR91       0.1639
    114  C         -2.1750   47.1550   37.9430 C.2    91  TYR91       0.2290
    115  O         -1.7560   46.2350   37.2510 O.2    91  TYR91      -0.2864
    116  CB        -4.2710   48.1950   36.9730 C.3    91  TYR91       0.0560
    117  CG        -5.7470   47.9330   36.7920 C.ar   91  TYR91      -0.0198
    118  CD1       -6.1790   46.7670   36.1880 C.ar   91  TYR91      -0.0009
    119  CD2       -6.7070   48.8320   37.2470 C.ar   91  TYR91      -0.0009
    120  CE1       -7.5150   46.5030   36.0280 C.ar   91  TYR91       0.0417
    121  CE2       -8.0600   48.5780   37.0910 C.ar   91  TYR91       0.0417
    122  CZ        -8.4520   47.3930   36.4860 C.ar   91  TYR91       0.1957
    123  OH        -9.7770   47.0820   36.3210 O.3    91  TYR91      -0.2866
    124  N         -7.2810   47.3070   30.6960 N.3   107  ARG107     -0.1231
    125  CA        -8.3880   47.5230   31.6290 C.3   107  ARG107      0.1694
    126  C         -8.2860   48.8400   32.3920 C.2   107  ARG107      0.2592
    127  O         -9.2550   49.2540   33.0110 O.2   107  ARG107     -0.2718
    128  CB        -8.5010   46.3430   32.5990 C.3   107  ARG107      0.0321
    129  CG        -8.8040   45.0100   31.9180 C.3   107  ARG107      0.0489
    130  CD        -9.2310   43.9460   32.9230 C.3   107  ARG107      0.2205
    131  NE        -9.3810   42.5990   32.3320 N.pl3 107  ARG107     -0.0865
    132  CZ       -10.1000   41.6060   32.8690 C.cat 107  ARG107      0.5346
    133  NH1      -10.7490   41.7570   34.0190 N.pl3 107  ARG107      0.1354
    134  NH2      -10.1730   40.4370   32.2470 N.pl3 107  ARG107      0.1354
    135  N         -7.1410   49.5130   32.3290 N.am  108  CYS108     -0.1970
    136  CA        -6.9430   50.7540   33.0660 C.3   108  CYS108      0.1712
    137  C         -6.4740   51.9240   32.1840 C.2   108  CYS108      0.2296
    138  O         -7.1190   52.9650   32.1360 O.2   108  CYS108     -0.2864
    139  CB        -5.9750   50.5060   34.2310 C.3   108  CYS108      0.0983
    140  SG        -5.6540   51.9370   35.3030 S.3   108  CYS108     -0.0798
    141  N         -7.7760   56.4260   29.3100 N.3   112  LEU112     -0.1245
    142  CA        -7.6480   57.2270   30.5330 C.3   112  LEU112      0.1561
    143  C         -7.2790   58.6900   30.2420 C.2   112  LEU112      0.2260
    144  O         -7.8440   59.5890   30.8540 O.2   112  LEU112     -0.2867
    145  CB        -6.6370   56.6090   31.5100 C.3   112  LEU112      0.0270
    146  CG        -6.5130   57.3080   32.8810 C.3   112  LEU112      0.0019
    147  CD1       -7.8820   57.4240   33.5330 C.3   112  LEU112      0.0001
    148  CD2       -5.5130   56.6220   33.8000 C.3   112  LEU112      0.0001
    149  N        -10.3150   60.3730   29.0620 N.3   115  THR115     -0.1203
    150  CA       -11.2150   60.5940   30.1950 C.3   115  THR115      0.1994
    151  C        -10.7900   61.8150   30.9830 C.2   115  THR115      0.2617
    152  O        -11.5850   62.7170   31.2400 O.2   115  THR115     -0.2717
    153  CB       -11.2740   59.3520   31.0980 C.3   115  THR115      0.1784
    154  OG1      -11.8690   58.2880   30.3570 O.3   115  THR115     -0.2211
    155  CG2      -12.0860   59.6040   32.3640 C.3   115  THR115      0.0376
    156  N         -9.5200   61.8560   31.3470 N.am  116  TYR116     -0.1975
    157  CA        -8.9980   62.9830   32.1050 C.3   116  TYR116      0.1639
    158  C         -9.0960   64.3160   31.3490 C.2   116  TYR116      0.2290
    159  O         -9.3630   65.3520   31.9610 O.2   116  TYR116     -0.2864
    160  CB        -7.5580   62.7070   32.5720 C.3   116  TYR116      0.0560
    161  CG        -7.4440   61.8150   33.8020 C.ar  116  TYR116     -0.0198
    162  CD1       -8.5710   61.3820   34.5230 C.ar  116  TYR116     -0.0009
    163  CD2       -6.2010   61.4620   34.2900 C.ar  116  TYR116     -0.0009
    164  CE1       -8.4360   60.5840   35.6460 C.ar  116  TYR116      0.0417
    165  CE2       -6.0620   60.6870   35.4120 C.ar  116  TYR116      0.0417
    166  CZ        -7.1720   60.2440   36.0920 C.ar  116  TYR116      0.1957
    167  OH        -6.9920   59.4810   37.2320 O.3   116  TYR116     -0.2866
    168  N        -12.7510   65.4540   31.5720 N.3   119  LEU119     -0.1245
    169  CA       -13.1210   65.8940   32.9260 C.3   119  LEU119      0.1561
    170  C        -12.4060   67.1750   33.3850 C.2   119  LEU119      0.2260
    171  O        -12.8670   67.8620   34.2900 O.2   119  LEU119     -0.2867
    172  CB       -12.8130   64.7890   33.9360 C.3   119  LEU119      0.0270
    173  CG       -13.6160   63.4950   33.8340 C.3   119  LEU119      0.0019
    174  CD1      -12.9920   62.4430   34.7070 C.3   119  LEU119      0.0001
    175  CD2      -15.0750   63.7440   34.2450 C.3   119  LEU119      0.0001
    176  N         -9.2000   66.8270   34.5080 N.3   121  VAL121     -0.1231
    177  CA        -8.2580   66.3370   35.5070 C.3   121  VAL121      0.1678
    178  C         -6.8490   66.6980   35.0240 C.2   121  VAL121      0.2434
    179  O         -6.4730   66.3200   33.9140 O.2   121  VAL121     -0.2733
    180  CB        -8.3810   64.8020   35.7320 C.3   121  VAL121      0.0265
    181  CG1       -7.1800   64.2550   36.5190 C.3   121  VAL121      0.0020
    182  CG2       -9.7290   64.4330   36.4140 C.3   121  VAL121      0.0020
    183  N         -6.0720   67.4530   35.8350 N.am  122  PRO122     -0.2729
    184  CA        -4.7680   67.9170   35.3580 C.3   122  PRO122      0.1401
    185  C         -3.7250   66.7940   35.2680 C.2   122  PRO122      0.2269
    186  O         -3.3220   66.2120   36.2740 O.2   122  PRO122     -0.2865
    187  CB        -4.3810   68.9910   36.3800 C.3   122  PRO122      0.0296
    188  CG        -5.0970   68.6170   37.6120 C.3   122  PRO122      0.0237
    189  CD        -6.3700   67.9410   37.1860 C.3   122  PRO122      0.0939
    190  N         -0.2390   66.7360   37.1100 N.3   125  SER125     -0.1202
    191  CA        -0.4120   66.4000   38.4960 C.3   125  SER125      0.2020
    192  C         -0.6290   64.9020   38.7060 C.2   125  SER125      0.2618
    193  O         -0.0260   64.3240   39.6040 O.2   125  SER125     -0.2717
    194  CB        -1.5660   67.2210   39.0970 C.3   125  SER125      0.2103
    195  OG        -1.3180   68.6040   38.9530 O.3   125  SER125     -0.2182
    196  N         -1.4730   64.2830   37.8780 N.am  126  ALA126     -0.1979
    197  CA        -1.6650   62.8180   37.8870 C.3   126  ALA126      0.1597
    198  C         -0.3540   62.0700   37.6650 C.2   126  ALA126      0.2287
    199  O         -0.0710   61.0730   38.3400 O.2   126  ALA126     -0.2864
    200  CB        -2.6920   62.3930   36.8290 C.3   126  ALA126      0.0319
    201  N          1.5370   62.1350   40.8580 N.3   129  ALA129     -0.1245
    202  CA         1.0160   61.1650   41.8070 C.3   129  ALA129      0.1562
    203  C          1.5510   59.7430   41.4950 C.2   129  ALA129      0.2260
    204  O          2.0010   59.0130   42.3680 O.2   129  ALA129     -0.2867
    205  CB        -0.5080   61.1830   41.8010 C.3   129  ALA129      0.0290
@<TRIPOS>BOND
     1   149   150    1
     2   141   142    1
     3   150   151    1
     4   150   153    1
     5   143   142    1
     6   143   144    2
     7   154   153    1
     8   142   145    1
     9   124   125    1
    10   151   152    2
    11   151   156   am
    12   153   155    1
    13   156   157    1
    14   158   159    2
    15   158   157    1
    16   145   146    1
    17   168   169    1
    18   125   126    1
    19   125   128    1
    20   129   128    1
    21   129   130    1
    22   157   160    1
    23   138   137    2
    24   137   136    1
    25   134   132    1
    26   135   126   am
    27   135   136    1
    28   131   132    2
    29   131   130    1
    30   126   127    2
    31   160   161    1
    32   132   133    1
    33   146   147    1
    34   146   148    1
    35   169   170    1
    36   169   172    1
    37   136   139    1
    38   170   171    2
    39   161   163   ar
    40   161   162   ar
    41   173   172    1
    42   173   175    1
    43   173   174    1
    44   179   178    2
    45   139   140    1
    46   163   165   ar
    47   176   177    1
    48   162   164   ar
    49   178   177    1
    50   178   183   am
    51   185   184    1
    52   185   186    2
    53   184   183    1
    54   184   187    1
    55   165   166   ar
    56   177   180    1
    57   164   166   ar
    58   180   182    1
    59   180   181    1
    60   183   189    1
    61   120   118   ar
    62   120   122   ar
    63   166   167    1
    64   118   117   ar
    65   123   122    1
    66   187   188    1
    67   122   121   ar
    68   117   116    1
    69   117   119   ar
    70   200   197    1
    71   116   113    1
    72   121   119   ar
    73   190   191    1
    74   189   188    1
    75   115   114    2
    76   198   197    1
    77   198   199    2
    78   196   197    1
    79   196   192   am
    80   100    98    1
    81   114   113    1
    82   113   112    1
    83    99    98    1
    84   191   192    1
    85   191   194    1
    86    92    90    1
    87    81    79   ar
    88   192   193    2
    89    98    95    1
    90   195   194    1
    91    95    96    1
    92    95    94    1
    93    97    96    2
    94   112   103   am
    95    79    80   ar
    96    79    78    1
    97    89    88    2
    98    73    71    1
    99    94    88   am
   100    90    91    1
   101    90    87    1
   102    93    91    1
   103    88    87    1
   104    78    75    1
   105   110   109    1
   106   104   103    2
   107   103   102    1
   108    72    71    1
   109    77    76    2
   110   111   109    1
   111    71    70    2
   112    51    49    1
   113   201   202    1
   114    87    86    1
   115    75    76    1
   116    75    74    1
   117   109   108    2
   118    23    21    1
   119    48    49    2
   120    48    47    1
   121    76    82   am
   122    39    38    1
   123    40    38    1
   124   203   202    1
   125   203   204    2
   126    49    50    1
   127    70    69    1
   128   205   202    1
   129   102   101    1
   130   102   105    1
   131    47    46    1
   132    38    37    2
   133    14    13    1
   134    14    15    1
   135   105   106    1
   136   108   107    1
   137   106   107    1
   138    74    65   am
   139    21    22    1
   140    21    20    1
   141    82    83    1
   142    56    53    1
   143    55    54    2
   144    69    68    1
   145    13    12    1
   146    85    84    2
   147    46    45    1
   148    83    84    1
   149    66    65    2
   150    62    61    1
   151    65    64    1
   152    24    25    1
   153    54    57   am
   154    54    53    1
   155    58    61    1
   156    58    57    1
   157    58    59    1
   158    37    36    1
   159    60    59    2
   160    17    20    1
   161    17    16    1
   162    17    18    1
   163    53    52    1
   164    68    67    1
   165    45    42    1
   166    12     9    1
   167    36    35    1
   168    67    64    1
   169    29    28    1
   170    19    18    2
   171    42    43    1
   172    42    41    1
   173    44    43    2
   174    25    28    1
   175    25    26    1
   176    64    63    1
   177    11    10    2
   178     9    10    1
   179     9     8    1
   180    35    34    1
   181    33    32    2
   182    41    32   am
   183    26    27    2
   184    32    31    1
   185     7     5    1
   186    34    31    1
   187     6     5    1
   188     2     5    1
   189     2     1    1
   190     2     3    1
   191    31    30    1
   192     4     3    2
