@<TRIPOS>MOLECULE
tmp/2vjhB00.pdb
 143 134 0 0 0
SMALL
GASTEIGER

@<TRIPOS>ATOM
      1  N          0.9890   47.5670   51.7610 N.3    47  ASN47      -0.1240
      2  CA         1.1700   48.9930   51.9860 C.3    47  ASN47       0.1653
      3  C          0.3170   49.8670   51.0760 C.2    47  ASN47       0.2266
      4  O          0.5920   51.0420   50.9520 O.2    47  ASN47      -0.2867
      5  CB         2.6510   49.3320   51.7970 C.3    47  ASN47       0.1155
      6  CG         3.5160   48.6760   52.8390 C.2    47  ASN47       0.2627
      7  OD1        3.4530   49.0530   53.9970 O.2    47  ASN47      -0.2716
      8  ND2        4.2930   47.6640   52.4510 N.am   47  ASN47      -0.0877
      9  N         -1.1810   53.3900   52.3880 N.3    50  CYS50      -0.1235
     10  CA        -0.0470   54.2870   52.5890 C.3    50  CYS50       0.1677
     11  C          0.5540   54.8100   51.2740 C.2    50  CYS50       0.2270
     12  O          0.8370   55.9970   51.1510 O.2    50  CYS50      -0.2867
     13  CB         1.0160   53.5390   53.4360 C.3    50  CYS50       0.0956
     14  SG         2.7550   53.8900   53.0750 S.3    50  CYS50      -0.0801
     15  N         -2.2190   57.3450   49.6870 N.3    53  SER53      -0.1202
     16  CA        -2.4490   58.5630   50.4420 C.3    53  SER53       0.2020
     17  C         -1.2130   59.4680   50.4590 C.2    53  SER53       0.2618
     18  O         -1.3270   60.6810   50.3150 O.2    53  SER53      -0.2717
     19  CB        -2.9490   58.2430   51.8650 C.3    53  SER53       0.2103
     20  OG        -1.9330   57.6220   52.6240 O.3    53  SER53      -0.2182
     21  N         -0.0410   58.8720   50.5830 N.am   54  ASP54      -0.1973
     22  CA         1.2210   59.6220   50.5170 C.3    54  ASP54       0.1709
     23  C          1.4650   60.2720   49.1390 C.2    54  ASP54       0.2293
     24  O          1.9670   61.4020   49.0420 O.2    54  ASP54      -0.2864
     25  CB         2.3740   58.6820   50.8840 C.3    54  ASP54       0.1436
     26  CG         3.7180   59.3180   50.7250 C.2    54  ASP54       0.3671
     27  OD1        4.1450   60.0320   51.6290 O.co2  54  ASP54      -0.2456
     28  OD2        4.3670   59.0890   49.6850 O.co2  54  ASP54      -0.2456
     29  N         -1.2780   63.1420   48.6280 N.3    57  SER57      -0.1202
     30  CA        -0.8400   64.2270   49.5080 C.3    57  SER57       0.2020
     31  C          0.4310   64.9250   49.0480 C.2    57  SER57       0.2619
     32  O          0.5620   66.1120   49.2310 O.2    57  SER57      -0.2717
     33  CB        -0.6180   63.7190   50.9430 C.3    57  SER57       0.2103
     34  OG        -1.8530   63.3820   51.5150 O.3    57  SER57      -0.2182
     35  N          1.3780   64.1700   48.5000 N.am   58  GLY58      -0.1956
     36  CA         2.6100   64.7350   47.9560 C.3    58  GLY58       0.1869
     37  C          2.3900   65.5490   46.6980 C.2    58  GLY58       0.2309
     38  O          2.9780   66.6140   46.5090 O.2    58  GLY58      -0.2863
     39  N          0.9420   68.7750   48.1630 N.3    61  CYS61      -0.1221
     40  CA         1.8600   69.6740   48.8540 C.3    61  CYS61       0.1808
     41  C          2.8710   70.3230   47.9020 C.2    61  CYS61       0.2601
     42  O          3.3640   71.4020   48.1810 O.2    61  CYS61      -0.2717
     43  CB         2.5640   68.9810   50.0370 C.3    61  CYS61       0.0970
     44  SG         3.8870   67.8280   49.6000 S.3    61  CYS61      -0.0800
     45  N          3.1580   69.6810   46.7810 N.am   62  GLU62      -0.1979
     46  CA         3.9950   70.2750   45.7440 C.3    62  GLU62       0.1602
     47  C          3.2240   71.2200   44.7970 C.2    62  GLU62       0.2287
     48  O          3.8380   72.0040   44.0800 O.2    62  GLU62      -0.2864
     49  CB         4.6630   69.1740   44.9340 C.3    62  GLU62       0.0415
     50  CG         5.5990   68.2930   45.7630 C.3    62  GLU62       0.1163
     51  CD         6.3120   67.2320   44.9260 C.2    62  GLU62       0.3649
     52  OE1        6.0840   67.1560   43.6990 O.co2  62  GLU62      -0.2457
     53  OE2        7.1360   66.4910   45.4990 O.co2  62  GLU62      -0.2457
     54  N          2.5820   63.1540   38.3760 N.3   128  ARG128     -0.1245
     55  CA         3.3460   63.2550   39.6180 C.3   128  ARG128      0.1563
     56  C          2.8470   62.2720   40.6830 C.2   128  ARG128      0.2260
     57  O          3.6390   61.6410   41.3490 O.2   128  ARG128     -0.2867
     58  CB         3.3650   64.6880   40.1570 C.3   128  ARG128      0.0307
     59  CG         4.2230   64.8850   41.4180 C.3   128  ARG128      0.0489
     60  CD         5.6200   64.3470   41.2340 C.3   128  ARG128      0.2205
     61  NE         6.4670   64.6540   42.3770 N.pl3 128  ARG128     -0.0865
     62  CZ         7.5420   63.9570   42.7410 C.cat 128  ARG128      0.5346
     63  NH1        7.9090   62.8570   42.0960 N.pl3 128  ARG128      0.1354
     64  NH2        8.2280   64.3380   43.8070 N.pl3 128  ARG128      0.1354
     65  N          4.2910   59.0070   39.8230 N.3   131  SER131     -0.1202
     66  CA         5.7280   58.9920   40.1400 C.3   131  SER131      0.2020
     67  C          6.0440   58.7870   41.5970 C.2   131  SER131      0.2618
     68  O          7.0320   58.1360   41.9260 O.2   131  SER131     -0.2717
     69  CB         6.4030   60.3070   39.7280 C.3   131  SER131      0.2103
     70  OG         6.4160   60.3380   38.3240 O.3   131  SER131     -0.2182
     71  N          5.2480   59.3870   42.4690 N.am  132  ILE132     -0.1979
     72  CA         5.4630   59.2100   43.9010 C.3   132  ILE132      0.1595
     73  C          5.1290   57.7750   44.3130 C.2   132  ILE132      0.2287
     74  O          5.8670   57.1730   45.0980 O.2   132  ILE132     -0.2864
     75  CB         4.6910   60.2550   44.7630 C.3   132  ILE132      0.0276
     76  CG1        5.1360   61.6840   44.3990 C.3   132  ILE132      0.0022
     77  CG2        4.9470   60.0160   46.2730 C.3   132  ILE132      0.0022
     78  CD1        4.2880   62.7930   45.0380 C.3   132  ILE132      0.0001
     79  N          8.1510   55.5200   43.3510 N.3   135  ALA135     -0.1231
     80  CA         9.1980   55.6160   44.3820 C.3   135  ALA135      0.1694
     81  C          8.8860   54.7830   45.6340 C.2   135  ALA135      0.2592
     82  O          9.7140   54.0340   46.1450 O.2   135  ALA135     -0.2718
     83  CB         9.3940   57.1000   44.7860 C.3   135  ALA135      0.0304
     84  N          7.6750   54.9940   46.1200 N.am  136  SER136     -0.1952
     85  CA         7.0580   54.3000   47.2500 C.3   136  SER136      0.1924
     86  C          7.0780   52.7500   47.0800 C.2   136  SER136      0.2314
     87  O          7.6220   52.0070   47.8990 O.2   136  SER136     -0.2863
     88  CB         5.5730   54.7700   47.2930 C.3   136  SER136      0.2116
     89  OG         5.1800   54.8930   48.5940 O.3   136  SER136     -0.2180
     90  N         10.5600   51.1830   46.7860 N.3   139  ALA139     -0.1231
     91  CA        11.2340   51.1340   48.0910 C.3   139  ALA139      0.1694
     92  C         10.7520   49.9580   48.9370 C.2   139  ALA139      0.2592
     93  O         11.5450   49.2780   49.5930 O.2   139  ALA139     -0.2718
     94  CB        11.0420   52.4570   48.8580 C.3   139  ALA139      0.0304
     95  N          9.4500   49.7150   48.9210 N.am  140  PHE140     -0.1976
     96  CA         8.8790   48.5890   49.6570 C.3   140  PHE140      0.1639
     97  C          9.3260   47.2530   49.0630 C.2   140  PHE140      0.2290
     98  O          9.6620   46.3440   49.8070 O.2   140  PHE140     -0.2864
     99  CB         7.3480   48.6830   49.7030 C.3   140  PHE140      0.0560
    100  CG         6.8250   49.6800   50.7080 C.ar  140  PHE140     -0.0200
    101  CD1        7.1410   49.5600   52.0530 C.ar  140  PHE140     -0.0042
    102  CD2        5.9750   50.7050   50.3160 C.ar  140  PHE140     -0.0042
    103  CE1        6.6390   50.4670   52.9850 C.ar  140  PHE140     -0.0003
    104  CE2        5.4640   51.6230   51.2630 C.ar  140  PHE140     -0.0003
    105  CZ         5.8230   51.5010   52.5880 C.ar  140  PHE140     -0.0000
    106  N         13.6560   49.2440   51.3510 N.3   144  THR144     -0.1203
    107  CA        14.3690   50.4790   51.7040 C.3   144  THR144      0.1994
    108  C         13.4280   51.6040   52.1860 C.2   144  THR144      0.2618
    109  O         13.8660   52.7480   52.3290 O.2   144  THR144     -0.2717
    110  CB        15.2110   51.0160   50.5030 C.3   144  THR144      0.1784
    111  OG1       14.3410   51.3470   49.4180 O.3   144  THR144     -0.2211
    112  CG2       16.2140   49.9860   50.0200 C.3   144  THR144      0.0376
    113  N         12.1500   51.2930   52.4420 N.am  145  ALA145     -0.1965
    114  CA        11.2200   52.2940   52.9600 C.3   145  ALA145      0.1728
    115  C         11.6600   52.7780   54.3500 C.2   145  ALA145      0.2617
    116  O         12.0500   51.9880   55.1990 O.2   145  ALA145     -0.2715
    117  CB         9.7780   51.7630   52.9900 C.3   145  ALA145      0.0334
    118  N         11.5880   54.0880   54.5680 N.am  146  SER146     -0.1936
    119  CA        12.1400   54.7210   55.7780 C.3   146  SER146      0.2055
    120  C         11.4250   54.3470   57.0860 C.2   146  SER146      0.2643
    121  O         12.0720   54.2280   58.1340 O.2   146  SER146     -0.2714
    122  CB        12.1420   56.2600   55.6070 C.3   146  SER146      0.2130
    123  OG        10.9100   56.7230   55.0580 O.3   146  SER146     -0.2179
    124  N         10.1040   54.1730   57.0360 N.am  147  LYS147     -0.1963
    125  CA         9.3130   53.9980   58.2580 C.3   147  LYS147      0.1728
    126  C          8.7140   52.6120   58.4460 C.2   147  LYS147      0.2616
    127  O          8.1000   52.3400   59.4760 O.2   147  LYS147     -0.2715
    128  CB         8.1890   55.0340   58.3190 C.3   147  LYS147      0.0311
    129  CG         8.6640   56.4700   58.1980 C.3   147  LYS147      0.0038
    130  CD         7.5080   57.4400   58.4900 C.3   147  LYS147      0.0206
    131  CE         7.5390   58.6930   57.5900 C.3   147  LYS147      0.1093
    132  NZ         6.2670   59.5110   57.7270 N.3   147  LYS147     -0.1314
    133  N          8.8750   51.7300   57.4720 N.am  148  ARG148     -0.1977
    134  CA         8.2980   50.3990   57.5930 C.3   148  ARG148      0.1597
    135  C          9.1010   49.3800   56.8120 C.2   148  ARG148      0.2287
    136  O          9.3350   49.5450   55.6240 O.2   148  ARG148     -0.2864
    137  CB         6.8270   50.4090   57.1410 C.3   148  ARG148      0.0334
    138  CG         6.0600   49.1430   57.4540 C.3   148  ARG148      0.0492
    139  CD         5.9880   48.2140   56.2510 C.3   148  ARG148      0.2205
    140  NE         5.6390   46.8510   56.6630 N.pl3 148  ARG148     -0.0865
    141  CZ         4.4270   46.3040   56.6020 C.cat 148  ARG148      0.5346
    142  NH1        3.3730   46.9790   56.1290 N.pl3 148  ARG148      0.1354
    143  NH2        4.2720   45.0540   57.0260 N.pl3 148  ARG148      0.1354
@<TRIPOS>BOND
     1    70    69    1
     2    54    55    1
     3    55    58    1
     4    55    56    1
     5    69    66    1
     6    65    66    1
     7    66    67    1
     8    58    59    1
     9    56    57    2
    10    60    59    1
    11    60    61    1
    12    67    68    2
    13    67    71   am
    14    63    62    1
    15    61    62    2
    16    71    72    1
    17    62    64    1
    18    79    80    1
    19    52    51   ar
    20    72    73    1
    21    72    75    1
    22    48    47    2
    23    73    74    2
    24    80    83    1
    25    80    81    1
    26    76    75    1
    27    76    78    1
    28    75    77    1
    29    47    46    1
    30    51    53   ar
    31    51    50    1
    32    49    46    1
    33    49    50    1
    34    81    84   am
    35    81    82    2
    36    46    45    1
    37    84    85    1
    38    38    37    2
    39    37    36    1
    40    45    41   am
    41    90    91    1
    42    86    85    1
    43    86    87    2
    44    85    88    1
    45    88    89    1
    46    41    42    2
    47    41    40    1
    48    36    35    1
    49    91    94    1
    50    91    92    1
    51    39    40    1
    52    35    31   am
    53    29    30    1
    54    40    43    1
    55    95    92   am
    56    95    96    1
    57    92    93    2
    58    24    23    2
    59    31    32    2
    60    31    30    1
    61    97    96    1
    62    97    98    2
    63    23    22    1
    64   111   110    1
    65    30    33    1
    66    44    43    1
    67    96    99    1
    68    28    26   ar
    69    15    16    1
    70    99   100    1
    71   112   110    1
    72    18    17    2
    73   102   100   ar
    74   102   104   ar
    75    16    17    1
    76    16    19    1
    77    17    21   am
    78   110   107    1
    79    22    21    1
    80    22    25    1
    81   100   101   ar
    82    26    25    1
    83    26    27   ar
    84    33    34    1
    85     4     3    2
    86     3     2    1
    87    12    11    2
    88   104   105   ar
    89    11    10    1
    90   106   107    1
    91   107   108    1
    92     1     2    1
    93     5     2    1
    94     5     6    1
    95    19    20    1
    96   101   103   ar
    97   108   109    2
    98   108   113   am
    99     9    10    1
   100   113   114    1
   101     8     6   am
   102   105   103   ar
   103    10    13    1
   104     6     7    2
   105   114   117    1
   106   114   115    1
   107    14    13    1
   108   115   118   am
   109   115   116    2
   110   118   119    1
   111   123   122    1
   112   122   119    1
   113   136   135    2
   114   119   120    1
   115   142   141    1
   116   139   140    1
   117   139   138    1
   118   141   140    2
   119   141   143    1
   120   135   134    1
   121   124   120   am
   122   124   125    1
   123   120   121    2
   124   137   138    1
   125   137   134    1
   126   133   134    1
   127   133   126   am
   128   131   132    1
   129   131   130    1
   130   129   128    1
   131   129   130    1
   132   125   128    1
   133   125   126    1
   134   126   127    2
