@<TRIPOS>MOLECULE
tmp/2vjhA00.pdb
 204 199 0 0 0
SMALL
GASTEIGER

@<TRIPOS>ATOM
      1  N         -5.8970    8.4030   11.2490 N.3    59  VAL59      -0.1231
      2  CA        -7.1980    8.8720   10.7900 C.3    59  VAL59       0.1692
      3  C         -7.6470    8.1300    9.5370 C.2    59  VAL59       0.2592
      4  O         -8.7570    7.6120    9.4880 O.2    59  VAL59      -0.2718
      5  CB        -7.1940   10.3870   10.5050 C.3    59  VAL59       0.0266
      6  CG1       -8.4100   10.7900    9.6550 C.3    59  VAL59       0.0020
      7  CG2       -7.1350   11.1560   11.8020 C.3    59  VAL59       0.0020
      8  N         -6.7770    8.1000    8.5290 N.am   60  PHE60      -0.1976
      9  CA        -7.1260    7.5500    7.2240 C.3    60  PHE60       0.1639
     10  C         -7.0810    6.0280    7.1670 C.2    60  PHE60       0.2290
     11  O         -7.7710    5.4380    6.3400 O.2    60  PHE60      -0.2864
     12  CB        -6.2970    8.2170    6.1150 C.3    60  PHE60       0.0560
     13  CG        -6.5900    9.6890    5.9890 C.ar   60  PHE60      -0.0200
     14  CD1       -7.8090   10.1180    5.4680 C.ar   60  PHE60      -0.0042
     15  CD2       -5.7130   10.6360    6.4970 C.ar   60  PHE60      -0.0042
     16  CE1       -8.1250   11.4700    5.4020 C.ar   60  PHE60      -0.0003
     17  CE2       -6.0210   11.9750    6.4320 C.ar   60  PHE60      -0.0003
     18  CZ        -7.2310   12.3960    5.8790 C.ar   60  PHE60      -0.0000
     19  N        -13.0260    8.3880    3.9950 N.3    66  LEU66      -0.1245
     20  CA       -12.7050    9.8080    3.8280 C.3    66  LEU66       0.1561
     21  C        -12.0530   10.1320    2.4890 C.2    66  LEU66       0.2260
     22  O        -12.1870   11.2470    1.9950 O.2    66  LEU66      -0.2867
     23  CB       -11.8200   10.3270    4.9750 C.3    66  LEU66       0.0270
     24  CG       -12.5150   10.3910    6.3270 C.3    66  LEU66       0.0019
     25  CD1      -11.5090   10.7290    7.4180 C.3    66  LEU66       0.0001
     26  CD2      -13.6840   11.3870    6.2700 C.3    66  LEU66       0.0001
     27  N        -14.1100   14.3360    3.0020 N.3    72  ALA72      -0.1231
     28  CA       -13.1440   15.3110    3.4680 C.3    72  ALA72       0.1694
     29  C        -11.6920   15.0280    3.0950 C.2    72  ALA72       0.2592
     30  O        -10.8600   15.9130    3.1920 O.2    72  ALA72      -0.2718
     31  CB       -13.2840   15.4950    5.0050 C.3    72  ALA72       0.0304
     32  N        -11.3690   13.8130    2.6830 N.am   73  GLY73      -0.1957
     33  CA       -10.0030   13.5020    2.2610 C.3    73  GLY73       0.1869
     34  C         -9.9100   13.0830    0.8130 C.2    73  GLY73       0.2309
     35  O         -9.0370   12.3040    0.4520 O.2    73  GLY73      -0.2863
     36  N         -6.7040   18.1470    0.3830 N.3    78  LYS78      -0.1245
     37  CA        -7.5760   18.0230    1.5440 C.3    78  LYS78       0.1561
     38  C         -7.0090   17.0710    2.6110 C.2    78  LYS78       0.2260
     39  O         -7.0890   17.3690    3.8000 O.2    78  LYS78      -0.2867
     40  CB        -8.9920   17.6120    1.1040 C.3    78  LYS78       0.0271
     41  CG        -9.7420   18.7670    0.4270 C.3    78  LYS78       0.0035
     42  CD       -10.9810   18.3130   -0.3330 C.3    78  LYS78       0.0206
     43  CE       -12.0980   17.8620    0.6140 C.3    78  LYS78       0.1093
     44  NZ       -13.3330   17.4590   -0.1390 N.3    78  LYS78      -0.1314
     45  N         -4.5090   19.1790    4.3930 N.3    81  LYS81      -0.1231
     46  CA        -5.1940   20.0590    5.3470 C.3    81  LYS81       0.1693
     47  C         -5.5820   19.3420    6.6410 C.2    81  LYS81       0.2592
     48  O         -5.5480   19.9250    7.7250 O.2    81  LYS81      -0.2718
     49  CB        -6.4140   20.7130    4.7060 C.3    81  LYS81       0.0285
     50  CG        -6.0600   21.8670    3.7850 C.3    81  LYS81       0.0035
     51  CD        -7.2510   22.7600    3.5150 C.3    81  LYS81       0.0206
     52  CE        -6.8330   24.0190    2.7370 C.3    81  LYS81       0.1093
     53  NZ        -8.0400   24.7280    2.2870 N.3    81  LYS81      -0.1314
     54  N         -5.9470   18.0660    6.5350 N.am   82  CYS82      -0.1970
     55  CA        -6.2290   17.2820    7.7210 C.3    82  CYS82       0.1712
     56  C         -4.9980   17.1290    8.6220 C.2    82  CYS82       0.2296
     57  O         -5.0930   17.2960    9.8450 O.2    82  CYS82      -0.2864
     58  CB        -6.7540   15.9000    7.3330 C.3    82  CYS82       0.0983
     59  SG        -7.2600   14.8750    8.7070 S.3    82  CYS82      -0.0798
     60  N         -2.4280   19.0540    8.5970 N.3    84  ARG84      -0.1231
     61  CA        -2.2120   20.4310    9.0520 C.3    84  ARG84       0.1694
     62  C         -3.0380   20.7700   10.2890 C.2    84  ARG84       0.2592
     63  O         -2.5310   21.3660   11.2710 O.2    84  ARG84      -0.2718
     64  CB        -2.5420   21.4090    7.9250 C.3    84  ARG84       0.0321
     65  CG        -2.5050   22.8790    8.3370 C.3    84  ARG84       0.0489
     66  CD        -3.3890   23.7020    7.4790 C.3    84  ARG84       0.2205
     67  NE        -4.7860   23.4060    7.7560 N.pl3  84  ARG84      -0.0865
     68  CZ        -5.8090   23.9250    7.0860 C.cat  84  ARG84       0.5346
     69  NH1       -5.5950   24.7620    6.0960 N.pl3  84  ARG84       0.1354
     70  NH2       -7.0530   23.6240    7.4150 N.pl3  84  ARG84       0.1354
     71  N         -4.3120   20.4050   10.2470 N.am   85  ASP85      -0.1960
     72  CA        -5.2050   20.6270   11.3960 C.3    85  ASP85       0.1840
     73  C         -4.7220   19.9310   12.6430 C.2    85  ASP85       0.2621
     74  O         -4.7800   20.5050   13.7260 O.2    85  ASP85      -0.2715
     75  CB        -6.6260   20.1470   11.1090 C.3    85  ASP85       0.1450
     76  CG        -7.3910   21.0960   10.2410 C.2    85  ASP85       0.3671
     77  OD1       -6.8060   22.0910    9.7690 O.co2  85  ASP85      -0.2456
     78  OD2       -8.5870   20.8370   10.0210 O.co2  85  ASP85      -0.2456
     79  N         -4.2820   18.6830   12.4870 N.am   86  ILE86      -0.1977
     80  CA        -3.6880   17.9370   13.5790 C.3    86  ILE86       0.1596
     81  C         -2.4420   18.6590   14.1430 C.2    86  ILE86       0.2287
     82  O         -2.2770   18.7510   15.3690 O.2    86  ILE86      -0.2864
     83  CB        -3.3480   16.5000   13.1660 C.3    86  ILE86       0.0276
     84  CG1       -4.6470   15.7250   12.8650 C.3    86  ILE86       0.0022
     85  CG2       -2.5570   15.7820   14.2930 C.3    86  ILE86       0.0022
     86  CD1       -4.4430   14.4040   12.0940 C.3    86  ILE86       0.0001
     87  N         -1.8640   21.9180   13.9170 N.3    88  HIS88      -0.1226
     88  CA        -2.3950   23.1090   14.6130 C.3    88  HIS88       0.1752
     89  C         -2.8010   22.7700   16.0370 C.2    88  HIS88       0.2596
     90  O         -2.4260   23.4560   16.9690 O.2    88  HIS88      -0.2718
     91  CB        -3.6320   23.6830   13.9070 C.3    88  HIS88       0.0759
     92  CG        -3.3600   24.4980   12.6870 C.ar   88  HIS88       0.0818
     93  ND1       -2.2320   25.2720   12.5230 N.ar   88  HIS88      -0.2268
     94  CD2       -4.1240   24.7170   11.5940 C.ar   88  HIS88       0.1154
     95  CE1       -2.3040   25.9140   11.3720 C.ar   88  HIS88       0.1986
     96  NE2       -3.4450   25.5940   10.7860 N.ar   88  HIS88      -0.2212
     97  N         -3.5770   21.7050   16.1990 N.am   89  TYR89      -0.1976
     98  CA        -3.9840   21.2400   17.5170 C.3    89  TYR89       0.1639
     99  C         -2.8470   20.8050   18.4270 C.2    89  TYR89       0.2290
    100  O         -2.8850   21.0540   19.6380 O.2    89  TYR89      -0.2864
    101  CB        -4.9860   20.0900   17.4170 C.3    89  TYR89       0.0560
    102  CG        -6.4020   20.5280   17.1510 C.ar   89  TYR89      -0.0198
    103  CD1       -7.1170   21.2370   18.1140 C.ar   89  TYR89      -0.0009
    104  CD2       -7.0380   20.2120   15.9760 C.ar   89  TYR89      -0.0009
    105  CE1       -8.4350   21.6200   17.8950 C.ar   89  TYR89       0.0417
    106  CE2       -8.3400   20.6090   15.7340 C.ar   89  TYR89       0.0417
    107  CZ        -9.0440   21.2970   16.7080 C.ar   89  TYR89       0.1957
    108  OH       -10.3390   21.7120   16.4870 O.3    89  TYR89      -0.2866
    109  N          0.1410   21.9610   18.2980 N.3    91  ARG91      -0.1231
    110  CA         0.7890   23.2240   18.6310 C.3    91  ARG91       0.1694
    111  C          0.0240   23.9350   19.7480 C.2    91  ARG91       0.2591
    112  O          0.6240   24.4190   20.7040 O.2    91  ARG91      -0.2718
    113  CB         0.8850   24.0850   17.3610 C.3    91  ARG91       0.0321
    114  CG         1.8880   25.1980   17.4170 C.3    91  ARG91       0.0489
    115  CD         2.2260   25.7750   16.0430 C.3    91  ARG91       0.2205
    116  NE         1.0350   25.9560   15.2180 N.pl3  91  ARG91      -0.0865
    117  CZ         0.2200   27.0000   15.3080 C.cat  91  ARG91       0.5346
    118  NH1        0.4530   27.9610   16.1730 N.pl3  91  ARG91       0.1354
    119  NH2       -0.8520   27.0710   14.5470 N.pl3  91  ARG91       0.1354
    120  N         -1.3000   23.9400   19.6520 N.am   92  LEU92      -0.1980
    121  CA        -2.1550   24.5040   20.7040 C.3    92  LEU92       0.1596
    122  C         -2.0420   23.7530   22.0250 C.2    92  LEU92       0.2287
    123  O         -2.1150   24.3740   23.0940 O.2    92  LEU92      -0.2864
    124  CB        -3.6270   24.5630   20.2590 C.3    92  LEU92       0.0297
    125  CG        -3.8770   25.4420   19.0310 C.3    92  LEU92       0.0022
    126  CD1       -5.3680   25.3970   18.6420 C.3    92  LEU92       0.0001
    127  CD2       -3.3640   26.8700   19.2750 C.3    92  LEU92       0.0001
    128  N         -8.2880   29.4840   20.2220 N.3   108  TRP108     -0.1227
    129  CA        -7.7710   29.3380   18.8640 C.3   108  TRP108      0.1737
    130  C         -8.1270   28.0190   18.1900 C.2   108  TRP108      0.2596
    131  O         -8.0410   27.9180   16.9790 O.2   108  TRP108     -0.2718
    132  CB        -6.2560   29.5580   18.8620 C.3   108  TRP108      0.0564
    133  CG        -5.8450   30.8730   19.4300 C.ar  108  TRP108      0.0003
    134  CD1       -6.6200   31.9960   19.5640 C.ar  108  TRP108      0.0946
    135  CD2       -4.5460   31.2310   19.9150 C.ar  108  TRP108      0.0152
    136  NE1       -5.8950   33.0050   20.1190 N.ar  108  TRP108     -0.2442
    137  CE2       -4.6200   32.5690   20.3520 C.ar  108  TRP108      0.0810
    138  CE3       -3.3310   30.5540   20.0230 C.ar  108  TRP108      0.0012
    139  CZ2       -3.5200   33.2470   20.8710 C.ar  108  TRP108      0.0191
    140  CZ3       -2.2420   31.2220   20.5570 C.ar  108  TRP108      0.0001
    141  CH2       -2.3420   32.5540   20.9720 C.ar  108  TRP108      0.0015
    142  N         -8.5580   27.0240   18.9670 N.am  109  GLY109     -0.1957
    143  CA        -8.8910   25.7160   18.4290 C.3   109  GLY109      0.1869
    144  C        -10.3370   25.2720   18.5570 C.2   109  GLY109      0.2309
    145  O        -10.8830   24.6980   17.6470 O.2   109  GLY109     -0.2863
    146  N        -17.5730   25.3010   11.9850 N.3   116  VAL116     -0.1231
    147  CA       -16.7080   25.1600   10.8120 C.3   116  VAL116      0.1692
    148  C        -16.7500   23.7230   10.2720 C.2   116  VAL116      0.2592
    149  O        -16.9190   23.5090    9.0760 O.2   116  VAL116     -0.2718
    150  CB       -15.2550   25.5650   11.1320 C.3   116  VAL116      0.0266
    151  CG1      -14.3070   25.2050    9.9740 C.3   116  VAL116      0.0020
    152  CG2      -15.1770   27.0680   11.4810 C.3   116  VAL116      0.0020
    153  N        -16.6520   22.7430   11.1630 N.am  117  TYR117     -0.1976
    154  CA       -16.5940   21.3380   10.7230 C.3   117  TYR117      0.1639
    155  C        -17.9280   20.8640   10.1300 C.2   117  TYR117      0.2290
    156  O        -17.9680   20.1190    9.1540 O.2   117  TYR117     -0.2864
    157  CB       -16.1000   20.4300   11.8510 C.3   117  TYR117      0.0560
    158  CG       -14.7450   20.8170   12.4100 C.ar  117  TYR117     -0.0198
    159  CD1      -13.8960   21.7030   11.7310 C.ar  117  TYR117     -0.0009
    160  CD2      -14.2910   20.2820   13.6000 C.ar  117  TYR117     -0.0009
    161  CE1      -12.6710   22.0580   12.2460 C.ar  117  TYR117      0.0417
    162  CE2      -13.0470   20.6210   14.1120 C.ar  117  TYR117      0.0417
    163  CZ       -12.2460   21.5140   13.4300 C.ar  117  TYR117      0.1957
    164  OH       -11.0210   21.8830   13.9270 O.3   117  TYR117     -0.2866
    165  N        -18.1430   22.3910    6.5590 N.3   120  LEU120     -0.1245
    166  CA       -17.1760   21.8230    5.6040 C.3   120  LEU120      0.1561
    167  C        -17.1850   20.2940    5.5360 C.2   120  LEU120      0.2260
    168  O        -16.3100   19.7080    4.8960 O.2   120  LEU120     -0.2867
    169  CB       -15.7640   22.3240    5.9410 C.3   120  LEU120      0.0270
    170  CG       -15.5320   23.8360    5.7880 C.3   120  LEU120      0.0019
    171  CD1      -14.0470   24.1590    5.9550 C.3   120  LEU120      0.0001
    172  CD2      -16.0520   24.3910    4.4300 C.3   120  LEU120      0.0001
    173  N        -16.6670   17.9500    7.8230 N.3   122  LEU122     -0.1231
    174  CA       -15.4810   17.3970    8.4750 C.3   122  LEU122      0.1678
    175  C        -15.9590   16.6350    9.7120 C.2   122  LEU122      0.2434
    176  O        -16.3070   17.2500   10.7210 O.2   122  LEU122     -0.2733
    177  CB       -14.4590   18.4880    8.8510 C.3   122  LEU122      0.0284
    178  CG       -13.9720   19.4350    7.7410 C.3   122  LEU122      0.0019
    179  CD1      -12.9740   20.4990    8.2550 C.3   122  LEU122      0.0001
    180  CD2      -13.4000   18.6770    6.5350 C.3   122  LEU122      0.0001
    181  N        -16.0390   15.2890    9.6140 N.am  123  PRO123     -0.2729
    182  CA       -16.5260   14.5200   10.7530 C.3   123  PRO123      0.1401
    183  C        -15.6440   14.6070   12.0040 C.2   123  PRO123      0.2269
    184  O        -14.4290   14.4060   11.9440 O.2   123  PRO123     -0.2865
    185  CB       -16.6170   13.0870   10.2130 C.3   123  PRO123      0.0296
    186  CG       -15.8160   13.0570    9.0420 C.3   123  PRO123      0.0237
    187  CD       -15.7800   14.4270    8.4570 C.3   123  PRO123      0.0939
    188  N        -13.1910   11.7390   13.1580 N.3   126  ALA126     -0.1231
    189  CA       -11.8260   11.7070   12.5990 C.3   126  ALA126      0.1694
    190  C        -10.8110   12.4050   13.5120 C.2   126  ALA126      0.2592
    191  O         -9.7290   11.8820   13.7620 O.2   126  ALA126     -0.2718
    192  CB       -11.7870   12.3120   11.1960 C.3   126  ALA126      0.0304
    193  N        -11.1670   13.5870   13.9910 N.am  127  TYR127     -0.1976
    194  CA       -10.3160   14.3220   14.8900 C.3   127  TYR127      0.1639
    195  C        -10.1640   13.5710   16.2240 C.2   127  TYR127      0.2290
    196  O         -9.0760   13.5080   16.7800 O.2   127  TYR127     -0.2864
    197  CB       -10.9010   15.7100   15.1390 C.3   127  TYR127      0.0560
    198  CG       -10.8220   16.6580   13.9660 C.ar  127  TYR127     -0.0198
    199  CD1       -9.7280   17.5070   13.8110 C.ar  127  TYR127     -0.0009
    200  CD2      -11.8560   16.7470   13.0350 C.ar  127  TYR127     -0.0009
    201  CE1       -9.6610   18.4080   12.7650 C.ar  127  TYR127      0.0417
    202  CE2      -11.7980   17.6510   11.9740 C.ar  127  TYR127      0.0417
    203  CZ       -10.6800   18.4710   11.8450 C.ar  127  TYR127      0.1957
    204  OH       -10.5830   19.3690   10.8130 O.3   127  TYR127     -0.2866
@<TRIPOS>BOND
     1    42    41    1
     2    42    43    1
     3    44    43    1
     4    36    37    1
     5    41    40    1
     6    35    34    2
     7    34    33    1
     8    40    37    1
     9    37    38    1
    10    22    21    2
    11    33    32    1
    12    53    52    1
    13    21    20    1
    14    38    39    2
    15    32    29   am
    16    52    51    1
    17    27    28    1
    18    29    30    2
    19    29    28    1
    20    28    31    1
    21    51    50    1
    22    50    49    1
    23    20    19    1
    24    20    23    1
    25    45    46    1
    26   172   170    1
    27    49    46    1
    28   168   167    2
    29    23    24    1
    30    46    47    1
    31    16    14   ar
    32    16    18   ar
    33    14    13   ar
    34   167   166    1
    35   166   169    1
    36   166   165    1
    37   170   169    1
    38   170   171    1
    39    18    17   ar
    40    13    12    1
    41    13    15   ar
    42    69    68    1
    43    12     9    1
    44    26    24    1
    45    24    25    1
    46    11    10    2
    47    17    15   ar
    48   180   178    1
    49    54    47   am
    50    54    55    1
    51    47    48    2
    52    68    70    1
    53    68    67    2
    54    10     9    1
    55     9     8    1
    56    58    55    1
    57    58    59    1
    58    66    67    1
    59    66    65    1
    60    55    56    1
    61   178   179    1
    62   178   177    1
    63   173   174    1
    64    64    65    1
    65    64    61    1
    66   187   186    1
    67   187   181    1
    68   174   177    1
    69   174   175    1
    70     8     3   am
    71    60    61    1
    72    56    57    2
    73   186   185    1
    74    61    62    1
    75   149   148    2
    76   156   155    2
    77     4     3    2
    78     3     2    1
    79   181   175   am
    80   181   182    1
    81     6     5    1
    82   175   176    2
    83    77    76   ar
    84   151   150    1
    85    78    76   ar
    86   155   154    1
    87   185   182    1
    88    76    75    1
    89    71    62   am
    90    71    72    1
    91   148   147    1
    92   148   153   am
    93    62    63    2
    94     5     2    1
    95     5     7    1
    96   154   153    1
    97   154   157    1
    98   182   183    1
    99    96    95   ar
   100    96    94   ar
   101     2     1    1
   102   147   150    1
   103   147   146    1
   104   204   203    1
   105    75    72    1
   106   150   152    1
   107   192   189    1
   108    95    93   ar
   109    72    73    1
   110    94    92   ar
   111   159   161   ar
   112   159   158   ar
   113   203   202   ar
   114   203   201   ar
   115   157   158    1
   116   184   183    2
   117   202   200   ar
   118    86    84    1
   119   161   163   ar
   120   158   160   ar
   121    79    73   am
   122    79    80    1
   123    93    92   ar
   124   189   188    1
   125   189   190    1
   126    73    74    2
   127    92    91    1
   128   201   199   ar
   129    84    83    1
   130   200   198   ar
   131    83    80    1
   132    83    85    1
   133   163   164    1
   134   163   162   ar
   135   190   191    2
   136   190   193   am
   137    80    81    1
   138   160   162   ar
   139   199   198   ar
   140    91    88    1
   141    87    88    1
   142   198   197    1
   143   193   194    1
   144    81    82    2
   145   119   117    1
   146    88    89    1
   147   194   197    1
   148   194   195    1
   149   116   117    2
   150   116   115    1
   151   117   118    1
   152   106   104   ar
   153   106   107   ar
   154   104   102   ar
   155    89    97   am
   156    89    90    2
   157   115   114    1
   158    97    98    1
   159   195   196    2
   160   108   107    1
   161   107   105   ar
   162   131   130    2
   163   102   101    1
   164   102   103   ar
   165   113   114    1
   166   113   110    1
   167   101    98    1
   168    98    99    1
   169   145   144    2
   170   105   103   ar
   171   130   129    1
   172   130   142   am
   173   109   110    1
   174    99   100    2
   175   143   144    1
   176   143   142    1
   177   110   111    1
   178   126   125    1
   179   132   129    1
   180   132   133    1
   181   129   128    1
   182   125   127    1
   183   125   124    1
   184   133   134   ar
   185   133   135   ar
   186   134   136   ar
   187   120   111   am
   188   120   121    1
   189   111   112    2
   190   135   138   ar
   191   135   137   ar
   192   138   140   ar
   193   136   137   ar
   194   124   121    1
   195   137   139   ar
   196   140   141   ar
   197   121   122    1
   198   139   141   ar
   199   122   123    2
