@<TRIPOS>MOLECULE
tmp/2vjhB02.pdb
 129 124 0 0 0
SMALL
GASTEIGER

@<TRIPOS>ATOM
      1  N         11.6160   30.1350   38.4130 N.3    32  ALA32      -0.1231
      2  CA        12.6060   30.0610   39.4860 C.3    32  ALA32       0.1694
      3  C         12.6380   31.3210   40.3580 C.2    32  ALA32       0.2592
      4  O         12.9810   31.2530   41.5340 O.2    32  ALA32      -0.2718
      5  CB        13.9970   29.7720   38.9060 C.3    32  ALA32       0.0304
      6  N         12.2940   32.4590   39.7680 N.am   33  ASN33      -0.1974
      7  CA        12.1840   33.7290   40.4820 C.3    33  ASN33       0.1688
      8  C         10.7780   34.0020   41.0270 C.2    33  ASN33       0.2292
      9  O         10.4930   35.1160   41.4900 O.2    33  ASN33      -0.2864
     10  CB        12.6040   34.8680   39.5510 C.3    33  ASN33       0.1181
     11  CG        14.0950   34.8700   39.2930 C.2    33  ASN33       0.2629
     12  OD1       14.8840   34.8250   40.2330 O.2    33  ASN33      -0.2716
     13  ND2       14.4880   34.9080   38.0280 N.am   33  ASN33      -0.0877
     14  N          8.9890   32.9380   43.6820 N.3    35  ASN35      -0.1225
     15  CA         8.7920   33.2930   45.0890 C.3    35  ASN35       0.1785
     16  C          9.0980   34.7760   45.3730 C.2    35  ASN35       0.2597
     17  O          8.3650   35.4560   46.1310 O.2    35  ASN35      -0.2718
     18  CB         9.6020   32.3890   46.0110 C.3    35  ASN35       0.1169
     19  CG         9.0350   30.9850   46.1070 C.2    35  ASN35       0.2627
     20  OD1        7.8490   30.8050   46.3410 O.2    35  ASN35      -0.2716
     21  ND2        9.8840   29.9840   45.9330 N.am   35  ASN35      -0.0877
     22  N         10.1560   35.2800   44.7460 N.am   36  LYS36      -0.1980
     23  CA        10.5030   36.6880   44.8600 C.3    36  LYS36       0.1596
     24  C          9.3950   37.5850   44.3200 C.2    36  LYS36       0.2287
     25  O          9.0700   38.5850   44.9370 O.2    36  LYS36      -0.2864
     26  CB        11.8170   36.9940   44.1380 C.3    36  LYS36       0.0298
     27  CG        12.9930   36.2280   44.6800 C.3    36  LYS36       0.0038
     28  CD        14.3160   36.9190   44.3830 C.3    36  LYS36       0.0206
     29  CE        14.6820   36.8750   42.9110 C.3    36  LYS36       0.1093
     30  NZ        16.1100   37.3400   42.6950 N.3    36  LYS36      -0.1314
     31  N          6.1820   36.9500   44.1060 N.3    38  LEU38      -0.1231
     32  CA         5.1430   36.8910   45.1300 C.3    38  LEU38       0.1693
     33  C          5.4380   37.8320   46.3050 C.2    38  LEU38       0.2592
     34  O          4.5470   38.5270   46.8120 O.2    38  LEU38      -0.2718
     35  CB         4.9970   35.4350   45.6120 C.3    38  LEU38       0.0284
     36  CG         4.0100   34.4760   44.9090 C.3    38  LEU38       0.0019
     37  CD1        3.5450   34.9230   43.5550 C.3    38  LEU38       0.0001
     38  CD2        4.4580   33.0080   44.9100 C.3    38  LEU38       0.0001
     39  N          6.6840   37.8480   46.7610 N.am   39  ASP39      -0.1960
     40  CA         7.0850   38.8010   47.8090 C.3    39  ASP39       0.1840
     41  C          6.9580   40.2500   47.3480 C.2    39  ASP39       0.2621
     42  O          6.5270   41.1120   48.1320 O.2    39  ASP39      -0.2715
     43  CB         8.5120   38.5510   48.2760 C.3    39  ASP39       0.1450
     44  CG         8.6110   37.4460   49.2910 C.2    39  ASP39       0.3671
     45  OD1        7.7190   37.2970   50.1680 O.co2  39  ASP39      -0.2456
     46  OD2        9.6240   36.7330   49.2220 O.co2  39  ASP39      -0.2456
     47  N          7.3380   40.5140   46.0910 N.am   40  ALA40      -0.1977
     48  CA         7.2530   41.8690   45.5280 C.3    40  ALA40       0.1597
     49  C          5.8000   42.3600   45.5010 C.2    40  ALA40       0.2287
     50  O          5.5040   43.4880   45.8790 O.2    40  ALA40      -0.2864
     51  CB         7.8680   41.9290   44.1390 C.3    40  ALA40       0.0319
     52  N          3.2610   41.2050   47.4530 N.3    42  ASN42      -0.1225
     53  CA         2.9040   41.3530   48.8710 C.3    42  ASN42       0.1785
     54  C          3.4340   42.6790   49.4610 C.2    42  ASN42       0.2597
     55  O          2.7590   43.3060   50.2860 O.2    42  ASN42      -0.2718
     56  CB         3.3960   40.1330   49.6590 C.3    42  ASN42       0.1169
     57  CG         2.9650   40.1240   51.1380 C.2    42  ASN42       0.2627
     58  OD1        1.8030   40.3860   51.4770 O.2    42  ASN42      -0.2716
     59  ND2        3.9200   39.7880   52.0320 N.am   42  ASN42      -0.0877
     60  N          4.6020   43.1210   49.0100 N.am   43  ALA43      -0.1979
     61  CA         5.1980   44.3770   49.4910 C.3    43  ALA43       0.1597
     62  C          4.3500   45.5910   49.1200 C.2    43  ALA43       0.2287
     63  O          4.2400   46.5180   49.9060 O.2    43  ALA43      -0.2864
     64  CB         6.6350   44.5540   48.9820 C.3    43  ALA43       0.0319
     65  N          9.3760   47.1530   47.7360 N.3   141  ILE141     -0.1231
     66  CA         9.9030   45.9500   47.0690 C.3   141  ILE141      0.1692
     67  C         11.3700   45.7030   47.4740 C.2   141  ILE141      0.2592
     68  O         11.7380   44.5770   47.8150 O.2   141  ILE141     -0.2718
     69  CB         9.8020   46.0130   45.5230 C.3   141  ILE141      0.0266
     70  CG1        8.3340   45.9910   45.0750 C.3   141  ILE141      0.0019
     71  CG2       10.5870   44.8380   44.8730 C.3   141  ILE141      0.0020
     72  CD1        8.1250   46.2750   43.5890 C.3   141  ILE141      0.0001
     73  N         12.1810   46.7670   47.4680 N.am  142  ASN142     -0.1960
     74  CA        13.6070   46.6640   47.8160 C.3   142  ASN142      0.1819
     75  C         13.8940   46.6720   49.3200 C.2   142  ASN142      0.2621
     76  O         15.0420   46.5700   49.7070 O.2   142  ASN142     -0.2715
     77  CB        14.3950   47.8000   47.1580 C.3   142  ASN142      0.1195
     78  CG        14.5340   47.6210   45.6670 C.2   142  ASN142      0.2630
     79  OD1       14.6380   46.4930   45.1680 O.2   142  ASN142     -0.2716
     80  ND2       14.5550   48.7310   44.9430 N.am  142  ASN142     -0.0877
     81  N         12.8440   46.7940   50.1350 N.am  143  ASN143     -0.1972
     82  CA        12.9230   46.9290   51.5950 C.3   143  ASN143      0.1688
     83  C         13.7760   48.1100   52.0510 C.2   143  ASN143      0.2292
     84  O         14.5140   47.9920   53.0260 O.2   143  ASN143     -0.2864
     85  CB        13.4030   45.6290   52.2680 C.3   143  ASN143      0.1181
     86  CG        13.1040   45.5940   53.7670 C.2   143  ASN143      0.2629
     87  OD1       12.0600   46.0750   54.2010 O.2   143  ASN143     -0.2716
     88  ND2       14.0360   45.0550   54.5620 N.am  143  ASN143     -0.0877
     89  N         12.0250   39.4270   54.5760 N.3   152  THR152     -0.1204
     90  CA        12.0550   38.4120   53.5190 C.3   152  THR152      0.1979
     91  C         13.4430   37.7350   53.5520 C.2   152  THR152      0.2460
     92  O         14.3860   38.2760   54.1370 O.2   152  THR152     -0.2732
     93  CB        11.8510   39.0750   52.1270 C.3   152  THR152      0.1783
     94  OG1       12.7100   40.2190   52.0270 O.3   152  THR152     -0.2211
     95  CG2       10.3990   39.5380   51.9170 C.3   152  THR152      0.0376
     96  N         13.5880   36.5600   52.9110 N.am  153  PRO153     -0.2717
     97  CA        14.9230   35.9570   52.8540 C.3   153  PRO153      0.1535
     98  C         15.8930   36.8590   52.1010 C.2   153  PRO153      0.2598
     99  O         15.4860   37.5490   51.1700 O.2   153  PRO153     -0.2715
    100  CB        14.6910   34.6410   52.0940 C.3   153  PRO153      0.0310
    101  CG        13.2250   34.3740   52.2590 C.3   153  PRO153      0.0237
    102  CD        12.5940   35.7250   52.2130 C.3   153  PRO153      0.0939
    103  N         17.1570   36.8430   52.5040 N.am  154  GLN154     -0.1964
    104  CA        18.1520   37.7890   51.9720 C.3   154  GLN154      0.1733
    105  C         18.4300   37.5030   50.4970 C.2   154  GLN154      0.2617
    106  O         18.5060   36.3490   50.0820 O.2   154  GLN154     -0.2715
    107  CB        19.4420   37.7690   52.8140 C.3   154  GLN154      0.0408
    108  CG        20.2750   36.4730   52.6720 C.3   154  GLN154      0.0908
    109  CD        21.3610   36.3230   53.7440 C.2   154  GLN154      0.2608
    110  OE1       21.4540   37.1260   54.6930 O.2   154  GLN154     -0.2717
    111  NE2       22.1860   35.2830   53.5980 N.am  154  GLN154     -0.0878
    112  N         18.5110   38.5650   49.7000 N.am  155  GLY155     -0.1940
    113  CA        18.7420   38.4180   48.2730 C.3   155  GLY155      0.2014
    114  C         18.4570   39.6830   47.4940 C.2   155  GLY155      0.2639
    115  O         18.3830   40.7620   48.0520 O.2   155  GLY155     -0.2714
    116  N         18.2840   39.5270   46.1910 N.am  156  ASP156     -0.1957
    117  CA        18.2800   40.6420   45.2540 C.3   156  ASP156      0.1840
    118  C         16.9670   40.6600   44.4940 C.2   156  ASP156      0.2622
    119  O         16.6160   39.6640   43.8580 O.2   156  ASP156     -0.2715
    120  CB        19.4450   40.4710   44.2650 C.3   156  ASP156      0.1450
    121  CG        19.4530   41.5430   43.1770 C.2   156  ASP156      0.3671
    122  OD1       19.2570   42.7430   43.5140 O.co2 156  ASP156     -0.2456
    123  OD2       19.6660   41.1710   41.9950 O.co2 156  ASP156     -0.2456
    124  N         16.2540   41.7870   44.5700 N.am  157  CYS157     -0.1968
    125  CA        15.0020   41.9780   43.8470 C.3   157  CYS157      0.1712
    126  C         15.0420   43.1440   42.8520 C.2   157  CYS157      0.2296
    127  O         13.9990   43.7100   42.5370 O.2   157  CYS157     -0.2864
    128  CB        13.8550   42.1920   44.8350 C.3   157  CYS157      0.0983
    129  SG        13.4850   40.7200   45.8120 S.3   157  CYS157     -0.0798
@<TRIPOS>BOND
     1    13    11   am
     2     1     2    1
     3     5     2    1
     4    11    10    1
     5    11    12    2
     6     2     3    1
     7    10     7    1
     8     6     3   am
     9     6     7    1
    10     3     4    2
    11     7     8    1
    12     8     9    2
    13   123   121   ar
    14   127   126    2
    15    30    29    1
    16   126   125    1
    17    29    28    1
    18   121   122   ar
    19   121   120    1
    20    37    36    1
    21    72    70    1
    22    14    15    1
    23   125   124    1
    24   125   128    1
    25   119   118    2
    26    31    32    1
    27    26    27    1
    28    26    23    1
    29    51    48    1
    30   120   117    1
    31    24    23    1
    32    24    25    2
    33    28    27    1
    34   118   124   am
    35   118   117    1
    36    22    23    1
    37    22    16   am
    38   128   129    1
    39    71    69    1
    40    36    38    1
    41    36    35    1
    42    80    78   am
    43    70    69    1
    44    15    16    1
    45    15    18    1
    46    32    35    1
    47    32    33    1
    48    79    78    2
    49   117   116    1
    50    16    17    2
    51    49    48    1
    52    49    50    2
    53    69    66    1
    54    48    47    1
    55    78    77    1
    56    21    19   am
    57    18    19    1
    58    47    41   am
    59    19    20    2
    60   116   114   am
    61    33    39   am
    62    33    34    2
    63    39    40    1
    64    66    67    1
    65    66    65    1
    66    77    74    1
    67    41    40    1
    68    41    42    2
    69    52    53    1
    70    73    67   am
    71    73    74    1
    72    67    68    2
    73   114   115    2
    74   114   113    1
    75    40    43    1
    76    74    75    1
    77   113   112    1
    78    43    44    1
    79    53    54    1
    80    53    56    1
    81    64    61    1
    82    60    54   am
    83    60    61    1
    84    62    61    1
    85    62    63    2
    86    46    44   ar
    87    44    45   ar
    88    75    76    2
    89    75    81   am
    90    54    55    2
    91    56    57    1
    92   112   105   am
    93   106   105    2
    94    81    82    1
    95   105   104    1
    96    57    58    2
    97    57    59   am
    98    99    98    2
    99    82    83    1
   100    82    85    1
   101    95    93    1
   102   104   103    1
   103   104   107    1
   104    94    93    1
   105    83    84    2
   106   100   101    1
   107   100    97    1
   108    98   103   am
   109    98    97    1
   110    93    90    1
   111   102   101    1
   112   102    96    1
   113    85    86    1
   114   108   107    1
   115   108   109    1
   116    97    96    1
   117    96    91   am
   118    90    91    1
   119    90    89    1
   120    91    92    2
   121   111   109   am
   122   109   110    2
   123    86    87    2
   124    86    88   am
