@<TRIPOS>MOLECULE
tmp/2vjjA00.pdb
 235 227 0 0 0
SMALL
GASTEIGER

@<TRIPOS>ATOM
      1  N         11.9120   11.5930   18.7880 N.3   100  GLY100     -0.1210
      2  CA        12.1170   11.2500   20.1970 C.3   100  GLY100      0.1956
      3  C         11.2210   11.9630   21.1860 C.2   100  GLY100      0.2612
      4  O         11.3030   11.7120   22.3960 O.2   100  GLY100     -0.2717
      5  N         10.3770   12.8640   20.6800 N.am  101  HIS101     -0.1961
      6  CA         9.4420   13.6370   21.4860 C.3   101  HIS101      0.1787
      7  C          8.0090   13.4980   20.9510 C.2   101  HIS101      0.2620
      8  O          7.1550   14.3600   21.2030 O.2   101  HIS101     -0.2715
      9  CB         9.8500   15.1120   21.4720 C.3   101  HIS101      0.0785
     10  CG        11.2810   15.3340   21.8210 C.ar  101  HIS101      0.0821
     11  ND1       11.7270   15.4090   23.1250 N.ar  101  HIS101     -0.2267
     12  CD2       12.3790   15.4530   21.0390 C.ar  101  HIS101      0.1154
     13  CE1       13.0330   15.5930   23.1290 C.ar  101  HIS101      0.1986
     14  NE2       13.4550   15.6200   21.8770 N.ar  101  HIS101     -0.2212
     15  N          7.7450   12.4130   20.2210 N.am  102  SER102     -0.1950
     16  CA         6.4450   12.1850   19.5580 C.3   102  SER102      0.1924
     17  C          5.9800   13.4060   18.7950 C.2   102  SER102      0.2314
     18  O          4.7970   13.7400   18.8030 O.2   102  SER102     -0.2863
     19  CB         5.3670   11.7980   20.5660 C.3   102  SER102      0.2116
     20  OG         5.7920   10.6980   21.3680 O.3   102  SER102     -0.2180
     21  N          3.4240   15.4420   20.7360 N.3   131  GLN131     -0.1245
     22  CA         3.7860   16.7990   21.1530 C.3   131  GLN131      0.1566
     23  C          3.6850   17.6360   19.9050 C.2   131  GLN131      0.2260
     24  O          4.3930   17.3950   18.9360 O.2   131  GLN131     -0.2867
     25  CB         5.1600   16.8610   21.8060 C.3   131  GLN131      0.0367
     26  CG         5.2070   15.9860   23.0480 C.3   131  GLN131      0.0905
     27  CD         6.4160   16.2330   23.9290 C.2   131  GLN131      0.2608
     28  OE1        6.7090   17.3760   24.2940 O.2   131  GLN131     -0.2717
     29  NE2        7.1140   15.1480   24.3010 N.am  131  GLN131     -0.0878
     30  N         13.0390   21.1540   20.4330 N.3   136  PHE136     -0.1241
     31  CA        14.2310   20.3050   20.4460 C.3   136  PHE136      0.1605
     32  C         14.5840   19.9210   19.0030 C.2   136  PHE136      0.2264
     33  O         13.6920   19.7770   18.1590 O.2   136  PHE136     -0.2867
     34  CB        13.9910   19.0180   21.2360 C.3   136  PHE136      0.0534
     35  CG        13.7580   19.2210   22.7130 C.ar  136  PHE136     -0.0203
     36  CD1       14.8020   19.5880   23.5540 C.ar  136  PHE136     -0.0042
     37  CD2       12.5100   18.9710   23.2760 C.ar  136  PHE136     -0.0042
     38  CE1       14.5940   19.7430   24.9330 C.ar  136  PHE136     -0.0003
     39  CE2       12.2950   19.1120   24.6320 C.ar  136  PHE136     -0.0003
     40  CZ        13.3310   19.4930   25.4700 C.ar  136  PHE136     -0.0000
     41  N         16.4880   13.9000   19.5140 N.3   139  GLY139     -0.1225
     42  CA        15.6500   13.0510   20.3580 C.3   139  GLY139      0.1811
     43  C         16.0960   13.0240   21.8030 C.2   139  GLY139      0.2280
     44  O         15.2950   12.7990   22.7010 O.2   139  GLY139     -0.2866
     45  N         17.3510   15.3110   24.6110 N.3   141  PRO141     -0.2116
     46  CA        17.4320   16.7430   24.8960 C.3   141  PRO141      0.1372
     47  C         18.8240   17.2220   25.3080 C.2   141  PRO141      0.2244
     48  O         19.1940   18.3480   24.9980 O.2   141  PRO141     -0.2868
     49  CB        16.4070   16.9530   26.0200 C.3   141  PRO141      0.0268
     50  CG        16.0830   15.6190   26.5550 C.3   141  PRO141      0.0207
     51  CD        16.3820   14.6170   25.4720 C.3   141  PRO141      0.0892
     52  N          2.9410   10.4100   26.8690 N.3   171  LEU171     -0.1245
     53  CA         3.0070   11.8560   27.1180 C.3   171  LEU171      0.1561
     54  C          2.3740   12.6020   25.9580 C.2   171  LEU171      0.2260
     55  O          2.4550   12.1780   24.7920 O.2   171  LEU171     -0.2867
     56  CB         4.4480   12.3180   27.2940 C.3   171  LEU171      0.0270
     57  CG         5.2620   11.7300   28.4390 C.3   171  LEU171      0.0019
     58  CD1        6.7370   12.1540   28.3060 C.3   171  LEU171      0.0001
     59  CD2        4.6950   12.1690   29.7880 C.3   171  LEU171      0.0001
     60  N          1.6510   16.8630   24.7280 N.3   173  ASN173     -0.1240
     61  CA         1.9910   18.2680   24.9250 C.3   173  ASN173      0.1653
     62  C          1.5050   19.0720   23.7300 C.2   173  ASN173      0.2266
     63  O          1.3530   18.5480   22.6290 O.2   173  ASN173     -0.2867
     64  CB         3.5130   18.4000   25.0500 C.3   173  ASN173      0.1155
     65  CG         3.9840   19.6950   25.7190 C.2   173  ASN173      0.2627
     66  OD1        3.2030   20.5380   26.1510 O.2   173  ASN173     -0.2716
     67  ND2        5.3060   19.8260   25.8240 N.am  173  ASN173     -0.0877
     68  N         -0.7560   15.7460   28.8900 N.3   196  THR196     -0.1203
     69  CA         0.0890   15.8680   30.0640 C.3   196  THR196      0.1994
     70  C          0.3130   17.3350   30.3890 C.2   196  THR196      0.2617
     71  O          0.1810   17.7480   31.5430 O.2   196  THR196     -0.2717
     72  CB         1.4560   15.1770   29.8750 C.3   196  THR196      0.1784
     73  OG1        1.2620   13.8320   29.3730 O.3   196  THR196     -0.2211
     74  CG2        2.2160   15.1580   31.1860 C.3   196  THR196      0.0376
     75  N          0.6920   18.0880   29.3600 N.am  197  TRP197     -0.1975
     76  CA         0.9270   19.5360   29.4440 C.3   197  TRP197      0.1640
     77  C          0.3200   20.1900   28.2210 C.2   197  TRP197      0.2290
     78  O          0.1560   19.5260   27.1890 O.2   197  TRP197     -0.2864
     79  CB         2.4230   19.8790   29.4610 C.3   197  TRP197      0.0576
     80  CG         3.2690   19.1040   30.4080 C.ar  197  TRP197      0.0006
     81  CD1        3.3670   19.2710   31.7480 C.ar  197  TRP197      0.0946
     82  CD2        4.1340   18.0260   30.0670 C.ar  197  TRP197      0.0152
     83  NE1        4.2740   18.3750   32.2740 N.ar  197  TRP197     -0.2442
     84  CE2        4.7580   17.5960   31.2570 C.ar  197  TRP197      0.0810
     85  CE3        4.4540   17.3900   28.8640 C.ar  197  TRP197      0.0012
     86  CZ2        5.6780   16.5410   31.2850 C.ar  197  TRP197      0.0191
     87  CZ3        5.3690   16.3390   28.8900 C.ar  197  TRP197      0.0001
     88  CH2        5.9690   15.9320   30.0950 C.ar  197  TRP197      0.0015
     89  N          5.3660   23.4250   27.6810 N.3   200  THR200     -0.1218
     90  CA         6.5500   23.3450   28.5270 C.3   200  THR200      0.1862
     91  C          7.6080   24.3470   28.0350 C.2   200  THR200      0.2287
     92  O          7.7900   24.5330   26.8190 O.2   200  THR200     -0.2866
     93  CB         7.1490   21.9170   28.5690 C.3   200  THR200      0.1770
     94  OG1        7.5870   21.5530   27.2560 O.3   200  THR200     -0.2211
     95  CG2        6.1020   20.8920   29.0520 C.3   200  THR200      0.0375
     96  N         11.6300   25.4960   28.4240 N.3   202  GLY202     -0.1210
     97  CA        12.9480   25.1170   28.8810 C.3   202  GLY202      0.1956
     98  C         13.1040   23.6080   29.0080 C.2   202  GLY202      0.2612
     99  O         12.1430   22.8250   28.7950 O.2   202  GLY202     -0.2717
    100  N         14.3270   23.2130   29.3570 N.am  203  TRP203     -0.1962
    101  CA        14.6450   21.8270   29.6590 C.3   203  TRP203      0.1771
    102  C         15.7110   21.8040   30.7360 C.2   203  TRP203      0.2619
    103  O         16.8290   22.2510   30.5110 O.2   203  TRP203     -0.2715
    104  CB        15.1370   21.0740   28.4160 C.3   203  TRP203      0.0590
    105  CG        15.5450   19.6920   28.7520 C.ar  203  TRP203      0.0006
    106  CD1       14.7260   18.6500   29.0640 C.ar  203  TRP203      0.0946
    107  CD2       16.8820   19.2200   28.9180 C.ar  203  TRP203      0.0152
    108  NE1       15.4750   17.5380   29.3910 N.ar  203  TRP203     -0.2442
    109  CE2       16.8040   17.8660   29.3050 C.ar  203  TRP203      0.0810
    110  CE3       18.1420   19.8070   28.7590 C.ar  203  TRP203      0.0012
    111  CZ2       17.9470   17.0840   29.5310 C.ar  203  TRP203      0.0191
    112  CZ3       19.2760   19.0350   28.9880 C.ar  203  TRP203      0.0001
    113  CH2       19.1660   17.6850   29.3670 C.ar  203  TRP203      0.0015
    114  N         15.3430   21.2940   31.9050 N.am  204  ASN204     -0.1972
    115  CA        16.2680   21.1510   33.0270 C.3   204  ASN204      0.1688
    116  C         17.1760   22.3510   33.2450 C.2   204  ASN204      0.2292
    117  O         18.3860   22.2070   33.4310 O.2   204  ASN204     -0.2864
    118  CB        17.0860   19.8520   32.8570 C.3   204  ASN204      0.1181
    119  CG        16.2200   18.6000   32.9660 C.2   204  ASN204      0.2629
    120  OD1       15.0080   18.6880   33.2120 O.2   204  ASN204     -0.2716
    121  ND2       16.8400   17.4250   32.7810 N.am  204  ASN204     -0.0877
    122  N         -2.4460   10.0160   33.4940 N.3   227  ALA227     -0.1231
    123  CA        -1.6910    9.8010   34.7250 C.3   227  ALA227      0.1694
    124  C         -1.5470   11.0490   35.5910 C.2   227  ALA227      0.2592
    125  O         -1.5230   10.9790   36.8230 O.2   227  ALA227     -0.2718
    126  CB        -0.3140    9.2530   34.3960 C.3   227  ALA227      0.0304
    127  N         -1.4530   12.2030   34.9460 N.am  228  ASP228     -0.1960
    128  CA        -1.0030   13.4170   35.6260 C.3   228  ASP228      0.1840
    129  C         -1.0360   14.5500   34.6060 C.2   228  ASP228      0.2622
    130  O         -0.8440   14.3230   33.4100 O.2   228  ASP228     -0.2715
    131  CB         0.4320   13.2200   36.1300 C.3   228  ASP228      0.1450
    132  CG         0.8010   14.1340   37.2800 C.2   228  ASP228      0.3671
    133  OD1       -0.0430   14.9190   37.7830 O.co2 228  ASP228     -0.2456
    134  OD2        1.9730   14.0610   37.7030 O.co2 228  ASP228     -0.2456
    135  N         -1.2950   15.7640   35.0760 N.am  229  HIS229     -0.1959
    136  CA        -1.3700   16.9280   34.1980 C.3   229  HIS229      0.1787
    137  C         -0.9400   18.2100   34.8960 C.2   229  HIS229      0.2620
    138  O         -1.3860   18.4930   36.0030 O.2   229  HIS229     -0.2715
    139  CB        -2.8000   17.1200   33.6960 C.3   229  HIS229      0.0785
    140  CG        -3.0050   18.3740   32.8960 C.ar  229  HIS229      0.0821
    141  ND1       -3.0460   18.3820   31.5200 N.ar  229  HIS229     -0.2267
    142  CD2       -3.1990   19.6560   33.2850 C.ar  229  HIS229      0.1154
    143  CE1       -3.2340   19.6190   31.0920 C.ar  229  HIS229      0.1986
    144  NE2       -3.3250   20.4150   32.1460 N.ar  229  HIS229     -0.2212
    145  N         -0.0680   18.9760   34.2330 N.am  230  SER230     -0.1950
    146  CA         0.1920   20.3690   34.5950 C.3   230  SER230      0.1924
    147  C          0.1310   21.1950   33.3240 C.2   230  SER230      0.2314
    148  O          0.8150   20.8780   32.3490 O.2   230  SER230     -0.2863
    149  CB         1.5510   20.5040   35.2660 C.3   230  SER230      0.2116
    150  OG         1.5100   19.8890   36.5370 O.3   230  SER230     -0.2180
    151  N          4.4570   24.0000   32.3510 N.3   233  TYR233     -0.1241
    152  CA         5.5930   23.5700   33.1780 C.3   233  TYR233      0.1605
    153  C          6.7790   24.4680   32.8450 C.2   233  TYR233      0.2264
    154  O          7.3030   24.4410   31.7170 O.2   233  TYR233     -0.2867
    155  CB         5.8750   22.1020   32.8690 C.3   233  TYR233      0.0534
    156  CG         6.7660   21.2850   33.8120 C.ar  233  TYR233     -0.0201
    157  CD1        8.1390   21.4900   33.8920 C.ar  233  TYR233     -0.0009
    158  CD2        6.2320   20.2170   34.5320 C.ar  233  TYR233     -0.0009
    159  CE1        8.9410   20.6820   34.7010 C.ar  233  TYR233      0.0417
    160  CE2        7.0190   19.4220   35.3280 C.ar  233  TYR233      0.0417
    161  CZ         8.3760   19.6430   35.3990 C.ar  233  TYR233      0.1957
    162  OH         9.1440   18.8220   36.2000 O.3   233  TYR233     -0.2866
    163  N         10.4450   25.2640   33.1500 N.3   235  ASN235     -0.1240
    164  CA        11.6950   24.5800   33.4740 C.3   235  ASN235      0.1653
    165  C         12.9250   25.3120   32.9350 C.2   235  ASN235      0.2266
    166  O         13.9370   24.6910   32.6190 O.2   235  ASN235     -0.2867
    167  CB        11.6440   23.1510   32.9330 C.3   235  ASN235      0.1155
    168  CG        12.4840   22.1830   33.7340 C.2   235  ASN235      0.2627
    169  OD1       12.9810   22.4940   34.8120 O.2   235  ASN235     -0.2716
    170  ND2       12.6120   20.9660   33.2200 N.am  235  ASN235     -0.0877
    171  N          3.5110   24.9160   36.9190 N.3   261  GLU261     -0.1245
    172  CA         4.6180   24.5140   37.7810 C.3   261  GLU261      0.1567
    173  C          5.8090   25.3960   37.4990 C.2   261  GLU261      0.2260
    174  O          6.1870   25.5920   36.3400 O.2   261  GLU261     -0.2867
    175  CB         5.0020   23.0520   37.5720 C.3   261  GLU261      0.0388
    176  CG         3.8150   22.1460   37.7270 C.3   261  GLU261      0.1160
    177  CD         4.1450   20.7360   38.1500 C.2   261  GLU261      0.3649
    178  OE1        5.3070   20.4020   38.4680 O.co2 261  GLU261     -0.2457
    179  OE2        3.1740   19.9620   38.1910 O.co2 261  GLU261     -0.2457
    180  N          9.7640   25.5860   38.2160 N.3   263  HIS263     -0.1241
    181  CA        10.8250   24.6270   38.5410 C.3   263  HIS263      0.1621
    182  C         12.2370   25.2080   38.4700 C.2   263  HIS263      0.2264
    183  O         13.1970   24.4740   38.6540 O.2   263  HIS263     -0.2867
    184  CB        10.7460   23.4260   37.6090 C.3   263  HIS263      0.0745
    185  CG         9.6670   22.4590   37.9700 C.ar  263  HIS263      0.0817
    186  ND1        9.9230   21.1440   38.3070 N.ar  263  HIS263     -0.2268
    187  CD2        8.3250   22.6130   38.0330 C.ar  263  HIS263      0.1154
    188  CE1        8.7790   20.5340   38.5670 C.ar  263  HIS263      0.1986
    189  NE2        7.7930   21.3990   38.3980 N.ar  263  HIS263     -0.2212
    190  N          2.7690   24.0230   41.5140 N.3   282  TYR282     -0.1241
    191  CA         3.9240   23.4670   42.2110 C.3   282  TYR282      0.1605
    192  C          5.0330   24.4840   42.0820 C.2   282  TYR282      0.2264
    193  O          5.2140   25.0540   41.0110 O.2   282  TYR282     -0.2867
    194  CB         4.3830   22.1360   41.6050 C.3   282  TYR282      0.0534
    195  CG         3.5000   20.9520   41.9310 C.ar  282  TYR282     -0.0201
    196  CD1        2.3580   20.6960   41.1890 C.ar  282  TYR282     -0.0009
    197  CD2        3.8170   20.0800   42.9790 C.ar  282  TYR282     -0.0009
    198  CE1        1.5480   19.6090   41.4820 C.ar  282  TYR282      0.0417
    199  CE2        2.9950   18.9830   43.2840 C.ar  282  TYR282      0.0417
    200  CZ         1.8660   18.7650   42.5280 C.ar  282  TYR282      0.1957
    201  OH         1.0370   17.7020   42.7880 O.3   282  TYR282     -0.2866
    202  N          8.9600   24.2380   43.0060 N.3   284  VAL284     -0.1245
    203  CA         9.8350   23.1420   43.4130 C.3   284  VAL284      0.1561
    204  C         11.2340   23.3080   42.8390 C.2   284  VAL284      0.2260
    205  O         11.4020   23.9340   41.7840 O.2   284  VAL284     -0.2867
    206  CB         9.2430   21.7750   42.9290 C.3   284  VAL284      0.0252
    207  CG1       10.2420   20.6430   43.0930 C.3   284  VAL284      0.0019
    208  CG2        7.9510   21.4390   43.6680 C.3   284  VAL284      0.0019
    209  N         13.6190   20.3450   41.8110 N.3   286  HIS286     -0.1241
    210  CA        14.0040   18.9440   41.6240 C.3   286  HIS286      0.1621
    211  C         15.5130   18.9110   41.3470 C.2   286  HIS286      0.2264
    212  O         15.9660   19.4360   40.3200 O.2   286  HIS286     -0.2867
    213  CB        13.3450   18.3100   40.3910 C.3   286  HIS286      0.0745
    214  CG        11.9310   17.8530   40.5760 C.ar  286  HIS286      0.0817
    215  ND1       11.4860   17.2030   41.7060 N.ar  286  HIS286     -0.2268
    216  CD2       10.8810   17.8800   39.7220 C.ar  286  HIS286      0.1154
    217  CE1       10.2100   16.8850   41.5530 C.ar  286  HIS286      0.1986
    218  NE2        9.8150   17.2940   40.3590 N.ar  286  HIS286     -0.2212
    219  N         16.6500   18.2070   37.8190 N.3   289  GLU289     -0.1245
    220  CA        16.4830   19.2430   36.8030 C.3   289  GLU289      0.1567
    221  C         17.4640   20.4010   36.9540 C.2   289  GLU289      0.2260
    222  O         17.2740   21.4820   36.3590 O.2   289  GLU289     -0.2867
    223  CB        15.0280   19.7610   36.8640 C.3   289  GLU289      0.0388
    224  CG        13.9770   18.6920   36.5410 C.3   289  GLU289      0.1160
    225  CD        12.5560   19.1950   36.6050 C.2   289  GLU289      0.3649
    226  OE1       12.2380   20.0510   37.4470 O.co2 289  GLU289     -0.2457
    227  OE2       11.7290   18.7050   35.8270 O.co2 289  GLU289     -0.2457
    228  N          8.7200   12.4640   45.2490 N.3   360  ASN360     -0.1240
    229  CA         7.9460   11.5240   44.4370 C.3   360  ASN360      0.1653
    230  C          7.9920   10.0800   44.9380 C.2   360  ASN360      0.2266
    231  O          7.1770    9.2660   44.5080 O.2   360  ASN360     -0.2867
    232  CB         8.3610   11.6050   42.9640 C.3   360  ASN360      0.1155
    233  CG         7.7250   12.7810   42.2460 C.2   360  ASN360      0.2627
    234  OD1        6.5350   13.0770   42.4430 O.2   360  ASN360     -0.2716
    235  ND2        8.4930   13.4430   41.3980 N.am  360  ASN360     -0.0877
@<TRIPOS>BOND
     1    33    32    2
     2     1     2    1
     3    17    18    2
     4    17    16    1
     5    24    23    2
     6    32    31    1
     7    41    42    1
     8    16    15    1
     9    16    19    1
    10    23    22    1
    11     2     3    1
    12    15     7   am
    13    42    43    1
    14    30    31    1
    15    31    34    1
    16    19    20    1
    17     5     3   am
    18     5     6    1
    19    21    22    1
    20     7     8    2
    21     7     6    1
    22    12    10   ar
    23    12    14   ar
    24    22    25    1
    25     3     4    2
    26    34    35    1
    27     9     6    1
    28     9    10    1
    29    43    44    2
    30    25    26    1
    31    10    11   ar
    32    14    13   ar
    33    63    62    2
    34    35    37   ar
    35    35    36   ar
    36    26    27    1
    37    11    13   ar
    38    37    39   ar
    39    36    38   ar
    40    62    61    1
    41    27    28    2
    42    27    29   am
    43    45    46    1
    44    45    51    1
    45    39    40   ar
    46    60    61    1
    47    55    54    2
    48    46    47    1
    49    46    49    1
    50    61    64    1
    51    38    40   ar
    52    48    47    2
    53    64    65    1
    54    51    50    1
    55    65    67   am
    56    65    66    2
    57    54    53    1
    58    49    50    1
    59    92    91    2
    60    52    53    1
    61    53    56    1
    62    78    77    2
    63    94    93    1
    64    56    57    1
    65    89    90    1
    66    91    90    1
    67    77    76    1
    68    58    57    1
    69   104   105    1
    70   104   101    1
    71    96    97    1
    72    57    59    1
    73    90    93    1
    74    93    95    1
    75   105   107   ar
    76   105   106   ar
    77   110   107   ar
    78   110   112   ar
    79    99    98    2
    80    85    87   ar
    81    85    82   ar
    82    97    98    1
    83    87    88   ar
    84    68    69    1
    85   107   109   ar
    86   112   113   ar
    87    98   100   am
    88   106   108   ar
    89   109   108   ar
    90   109   111   ar
    91   100   101    1
    92    75    76    1
    93    75    70   am
    94   113   111   ar
    95    73    72    1
    96    76    79    1
    97    79    80    1
    98   101   102    1
    99    72    69    1
   100    72    74    1
   101    69    70    1
   102    82    80   ar
   103    82    84   ar
   104    88    86   ar
   105    70    71    2
   106    80    81   ar
   107   103   102    2
   108   102   114   am
   109   143   141   ar
   110   143   144   ar
   111    84    86   ar
   112    84    83   ar
   113   141   140   ar
   114   154   153    2
   115    81    83   ar
   116   114   115    1
   117   144   142   ar
   118   148   147    2
   119   151   152    1
   120   166   165    2
   121   121   119   am
   122   153   152    1
   123   118   119    1
   124   118   115    1
   125   155   152    1
   126   155   156    1
   127   140   142   ar
   128   140   139    1
   129   167   164    1
   130   167   168    1
   131   165   164    1
   132   119   120    2
   133   115   116    1
   134   163   164    1
   135   170   168   am
   136   116   117    2
   137   147   146    1
   138   130   129    2
   139   122   123    1
   140   139   136    1
   141   168   169    2
   142   156   157   ar
   143   156   158   ar
   144   157   159   ar
   145   136   137    1
   146   136   135    1
   147   145   146    1
   148   145   137   am
   149   126   123    1
   150   158   160   ar
   151   146   149    1
   152   129   135   am
   153   129   128    1
   154   159   161   ar
   155   123   124    1
   156   137   138    2
   157   127   124   am
   158   127   128    1
   159   149   150    1
   160   160   161   ar
   161   161   162    1
   162   124   125    2
   163   128   131    1
   164   227   225   ar
   165   131   132    1
   166   174   173    2
   167   222   221    2
   168   224   225    1
   169   224   223    1
   170   225   226   ar
   171   220   223    1
   172   220   221    1
   173   220   219    1
   174   171   172    1
   175   132   134   ar
   176   132   133   ar
   177   173   172    1
   178   175   176    1
   179   175   172    1
   180   184   185    1
   181   184   181    1
   182   176   177    1
   183   185   187   ar
   184   185   186   ar
   185   187   189   ar
   186   177   179   ar
   187   177   178   ar
   188   180   181    1
   189   186   188   ar
   190   189   188   ar
   191   182   181    1
   192   182   183    2
   193   216   218   ar
   194   216   214   ar
   195   212   211    2
   196   218   217   ar
   197   213   214    1
   198   213   210    1
   199   214   215   ar
   200   193   192    2
   201   196   198   ar
   202   196   195   ar
   203   211   210    1
   204   235   233   am
   205   198   200   ar
   206   190   191    1
   207   217   215   ar
   208   194   195    1
   209   194   191    1
   210   210   209    1
   211   205   204    2
   212   195   197   ar
   213   192   191    1
   214   233   234    2
   215   233   232    1
   216   200   201    1
   217   200   199   ar
   218   204   203    1
   219   206   207    1
   220   206   203    1
   221   206   208    1
   222   232   229    1
   223   197   199   ar
   224   202   203    1
   225   229   230    1
   226   229   228    1
   227   231   230    2
