@<TRIPOS>MOLECULE
tmp/2vjkA00.pdb
 235 228 0 0 0
SMALL
GASTEIGER

@<TRIPOS>ATOM
      1  N        -43.5620   18.5960   17.0110 N.3    14  HIS14      -0.1226
      2  CA       -42.7400   19.5440   17.7360 C.3    14  HIS14       0.1752
      3  C        -41.4390   19.8110   16.9680 C.2    14  HIS14       0.2596
      4  O        -41.1290   19.1320   15.9870 O.2    14  HIS14      -0.2718
      5  CB       -42.4430   19.0130   19.1400 C.3    14  HIS14       0.0759
      6  CG       -41.6080   17.7700   19.1510 C.ar   14  HIS14       0.0818
      7  ND1      -40.4570   17.6590   19.8980 N.ar   14  HIS14      -0.2268
      8  CD2      -41.7370   16.5990   18.4840 C.ar   14  HIS14       0.1154
      9  CE1      -39.9220   16.4650   19.7030 C.ar   14  HIS14       0.1986
     10  NE2      -40.6780   15.8050   18.8460 N.ar   14  HIS14      -0.2212
     11  N        -40.6960   20.8060   17.4290 N.am   15  VAL15      -0.1966
     12  CA       -39.4450   21.2640   16.8040 C.3    15  VAL15       0.1727
     13  C        -39.6240   21.6480   15.2950 C.2    15  VAL15       0.2616
     14  O        -40.4320   22.5320   15.0010 O.2    15  VAL15      -0.2715
     15  CB       -38.2290   20.3420   17.1930 C.3    15  VAL15       0.0290
     16  CG1      -38.3980   18.9130   16.7050 C.3    15  VAL15       0.0023
     17  CG2      -36.9010   20.9460   16.7360 C.3    15  VAL15       0.0023
     18  N        -38.9240   21.0240   14.3490 N.am   16  GLN16      -0.1963
     19  CA       -38.8800   21.5640   12.9670 C.3    16  GLN16       0.1733
     20  C        -39.6950   20.8150   11.9070 C.2    16  GLN16       0.2616
     21  O        -40.5680   21.4040   11.2850 O.2    16  GLN16      -0.2715
     22  CB       -37.4350   21.6620   12.4740 C.3    16  GLN16       0.0408
     23  CG       -36.5520   22.6060   13.2520 C.3    16  GLN16       0.0908
     24  CD       -35.1460   22.0620   13.4220 C.2    16  GLN16       0.2608
     25  OE1      -34.1890   22.5750   12.8300 O.2    16  GLN16      -0.2717
     26  NE2      -35.0130   21.0120   14.2300 N.am   16  GLN16      -0.0878
     27  N        -39.3980   19.5310   11.6980 N.am   17  ALA17      -0.1977
     28  CA       -39.9130   18.7820   10.5390 C.3    17  ALA17       0.1597
     29  C        -41.4320   18.6360   10.5140 C.2    17  ALA17       0.2287
     30  O        -42.0790   18.9740    9.5250 O.2    17  ALA17      -0.2864
     31  CB       -39.2600   17.3980   10.4660 C.3    17  ALA17       0.0319
     32  N        -51.1780   19.7600   19.6870 N.3    35  ILE35      -0.1231
     33  CA       -51.0890   19.2440   21.0500 C.3    35  ILE35       0.1692
     34  C        -49.7040   19.4980   21.6220 C.2    35  ILE35       0.2592
     35  O        -48.6990   19.1270   21.0110 O.2    35  ILE35      -0.2718
     36  CB       -51.3310   17.7200   21.1110 C.3    35  ILE35       0.0266
     37  CG1      -52.7240   17.3730   20.5870 C.3    35  ILE35       0.0019
     38  CG2      -51.1620   17.2160   22.5380 C.3    35  ILE35       0.0020
     39  CD1      -52.9870   15.8960   20.5390 C.3    35  ILE35       0.0001
     40  N        -49.6560   20.0980   22.8060 N.am   36  GLU36      -0.1966
     41  CA       -48.3960   20.4820   23.4130 C.3    36  GLU36       0.1733
     42  C        -48.2950   20.0130   24.8480 C.2    36  GLU36       0.2616
     43  O        -49.3000   19.8140   25.5250 O.2    36  GLU36      -0.2715
     44  CB       -48.2250   21.9950   23.3650 C.3    36  GLU36       0.0429
     45  CG       -48.2280   22.5470   21.9600 C.3    36  GLU36       0.1163
     46  CD       -47.7490   23.9650   21.9050 C.2    36  GLU36       0.3649
     47  OE1      -46.5690   24.1970   22.2340 O.co2  36  GLU36      -0.2457
     48  OE2      -48.5460   24.8440   21.5250 O.co2  36  GLU36      -0.2457
     49  N        -47.0590   19.8420   25.2960 N.am   37  ARG37      -0.1977
     50  CA       -46.7780   19.4470   26.6660 C.3    37  ARG37       0.1597
     51  C        -47.1430   20.6060   27.5970 C.2    37  ARG37       0.2287
     52  O        -46.9100   21.7710   27.2650 O.2    37  ARG37      -0.2864
     53  CB       -45.2960   19.0920   26.8060 C.3    37  ARG37       0.0334
     54  CG       -44.9970   18.0690   27.8810 C.3    37  ARG37       0.0492
     55  CD       -43.5080   18.0100   28.1530 C.3    37  ARG37       0.2205
     56  NE       -42.7480   17.5200   27.0020 N.pl3  37  ARG37      -0.0865
     57  CZ       -42.5120   16.2340   26.7330 C.cat  37  ARG37       0.5346
     58  NH1      -42.9860   15.2680   27.5200 N.pl3  37  ARG37       0.1354
     59  NH2      -41.7950   15.9100   25.6600 N.pl3  37  ARG37       0.1354
     60  N        -40.6810   22.8470   22.5600 N.3    43  MET43      -0.1245
     61  CA       -39.3930   23.4070   23.0040 C.3    43  MET43       0.1570
     62  C        -38.9150   24.6070   22.1840 C.2    43  MET43       0.2261
     63  O        -38.1340   25.4240   22.6700 O.2    43  MET43      -0.2867
     64  CB       -38.2950   22.3290   22.9810 C.3    43  MET43       0.0387
     65  CG       -38.3280   21.3570   24.1580 C.3    43  MET43       0.0595
     66  SD       -37.0080   20.1210   24.0950 S.3    43  MET43      -0.1393
     67  CE       -37.2710   19.2430   25.6340 C.3    43  MET43       0.0692
     68  N        -51.7960   19.2940   26.9150 N.3    71  LEU71      -0.1231
     69  CA       -52.2960   17.9590   27.2150 C.3    71  LEU71       0.1693
     70  C        -51.1950   17.0500   27.7480 C.2    71  LEU71       0.2592
     71  O        -50.1270   16.9270   27.1370 O.2    71  LEU71      -0.2718
     72  CB       -52.9330   17.3400   25.9650 C.3    71  LEU71       0.0284
     73  CG       -53.8010   16.0860   26.1430 C.3    71  LEU71       0.0019
     74  CD1      -54.9820   16.3590   27.0660 C.3    71  LEU71       0.0001
     75  CD2      -54.2930   15.5890   24.7980 C.3    71  LEU71       0.0001
     76  N        -51.4560   16.4350   28.9030 N.am   72  ASP72      -0.1960
     77  CA       -50.6230   15.3500   29.4130 C.3    72  ASP72       0.1840
     78  C        -51.2340   14.0640   28.8720 C.2    72  ASP72       0.2622
     79  O        -52.3140   13.6490   29.3060 O.2    72  ASP72      -0.2715
     80  CB       -50.5920   15.3460   30.9470 C.3    72  ASP72       0.1450
     81  CG       -49.5120   14.4320   31.5170 C.2    72  ASP72       0.3671
     82  OD1      -49.1910   13.3960   30.8940 O.co2  72  ASP72      -0.2456
     83  OD2      -48.9820   14.7500   32.6030 O.co2  72  ASP72      -0.2456
     84  N        -50.5510   13.4570   27.9040 N.am   73  MET73      -0.1963
     85  CA       -51.0520   12.2590   27.2290 C.3    73  MET73       0.1736
     86  C        -50.6790   10.9670   27.9680 C.2    73  MET73       0.2616
     87  O        -51.1250    9.8830   27.5850 O.2    73  MET73      -0.2715
     88  CB       -50.5370   12.2190   25.7880 C.3    73  MET73       0.0427
     89  CG       -50.9670   13.4210   24.9470 C.3    73  MET73       0.0599
     90  SD       -50.0080   13.6160   23.4290 S.3    73  MET73      -0.1393
     91  CE       -50.3560   12.0650   22.6230 C.3    73  MET73       0.0692
     92  N        -49.8690   11.0920   29.0220 N.am   74  LYS74      -0.1977
     93  CA       -49.5720    9.9860   29.9360 C.3    74  LYS74       0.1596
     94  C        -50.4700   10.0520   31.1800 C.2    74  LYS74       0.2287
     95  O        -50.0090    9.8670   32.3070 O.2    74  LYS74      -0.2864
     96  CB       -48.0870    9.9970   30.3290 C.3    74  LYS74       0.0298
     97  CG       -47.1440    9.6700   29.1720 C.3    74  LYS74       0.0038
     98  CD       -45.6780    9.8690   29.5520 C.3    74  LYS74       0.0206
     99  CE       -44.7460    9.4100   28.4350 C.3    74  LYS74       0.1093
    100  NZ       -43.3070    9.5020   28.8250 N.3    74  LYS74      -0.1314
    101  N        -43.9060   13.6750   15.1080 N.3    95  ASN95      -0.1225
    102  CA       -42.4610   13.4930   14.9390 C.3    95  ASN95       0.1785
    103  C        -41.7790   13.3330   16.2960 C.2    95  ASN95       0.2597
    104  O        -40.7910   14.0050   16.6080 O.2    95  ASN95      -0.2718
    105  CB       -41.8100   14.5780   14.0360 C.3    95  ASN95       0.1169
    106  CG       -41.7740   15.9690   14.6680 C.2    95  ASN95       0.2627
    107  OD1      -42.7370   16.4080   15.2870 O.2    95  ASN95      -0.2716
    108  ND2      -40.6620   16.6800   14.4730 N.am   95  ASN95      -0.0877
    109  N        -42.3500   12.4390   17.1050 N.am   96  PHE96      -0.1962
    110  CA       -41.7070   11.9510   18.3180 C.3    96  PHE96       0.1771
    111  C        -40.6120   10.9700   17.9090 C.2    96  PHE96       0.2620
    112  O        -40.5160   10.5820   16.7370 O.2    96  PHE96      -0.2715
    113  CB       -42.6920   11.1890   19.2220 C.3    96  PHE96       0.0574
    114  CG       -43.7890   12.0340   19.8220 C.ar   96  PHE96      -0.0200
    115  CD1      -45.1080   11.5940   19.7890 C.ar   96  PHE96      -0.0042
    116  CD2      -43.5100   13.2440   20.4510 C.ar   96  PHE96      -0.0042
    117  CE1      -46.1320   12.3510   20.3480 C.ar   96  PHE96      -0.0003
    118  CE2      -44.5340   14.0050   21.0180 C.ar   96  PHE96      -0.0003
    119  CZ       -45.8450   13.5530   20.9660 C.ar   96  PHE96      -0.0000
    120  N        -39.8090   10.5510   18.8830 N.am   97  GLY97      -0.1940
    121  CA       -38.8280    9.4930   18.6680 C.3    97  GLY97       0.1998
    122  C        -39.5010    8.1760   18.3060 C.2    97  GLY97       0.2480
    123  O        -40.6870    7.9930   18.5820 O.2    97  GLY97      -0.2729
    124  N        -38.7520    7.2510   17.6720 N.am   98  PRO98      -0.2726
    125  CA       -39.3080    5.9500   17.2720 C.3    98  PRO98       0.1402
    126  C        -40.0360    5.2200   18.4030 C.2    98  PRO98       0.2269
    127  O        -39.5310    5.1640   19.5250 O.2    98  PRO98      -0.2865
    128  CB       -38.0670    5.1640   16.8360 C.3    98  PRO98       0.0296
    129  CG       -37.1280    6.2090   16.3440 C.3    98  PRO98       0.0237
    130  CD       -37.3360    7.3770   17.2770 C.3    98  PRO98       0.0939
    131  N        -42.6110    6.0300   20.1700 N.3   100  ALA100     -0.1245
    132  CA       -43.2180    6.8660   21.2190 C.3   100  ALA100      0.1562
    133  C        -44.7510    6.8400   21.2310 C.2   100  ALA100      0.2260
    134  O        -45.3580    6.7200   22.2960 O.2   100  ALA100     -0.2867
    135  CB       -42.7160    8.3000   21.1110 C.3   100  ALA100      0.0290
    136  N        -46.0630    3.4070   22.4770 N.3   103  ARG103     -0.1231
    137  CA       -45.9360    3.2760   23.9330 C.3   103  ARG103      0.1694
    138  C        -47.0410    4.0220   24.6880 C.2   103  ARG103      0.2591
    139  O        -47.3870    3.6470   25.8080 O.2   103  ARG103     -0.2718
    140  CB       -44.5500    3.7360   24.4040 C.3   103  ARG103      0.0321
    141  CG       -43.4210    2.7950   23.9790 C.3   103  ARG103      0.0489
    142  CD       -42.1190    3.0630   24.7230 C.3   103  ARG103      0.2205
    143  NE       -41.4030    4.2450   24.2380 N.pl3 103  ARG103     -0.0865
    144  CZ       -40.7020    4.3000   23.1030 C.cat 103  ARG103      0.5346
    145  NH1      -40.5970    3.2390   22.3070 N.pl3 103  ARG103      0.1354
    146  NH2      -40.0900    5.4290   22.7630 N.pl3 103  ARG103      0.1354
    147  N        -47.5910    5.0690   24.0690 N.am  104  MET104     -0.1979
    148  CA       -48.7690    5.7640   24.6010 C.3   104  MET104      0.1605
    149  C        -50.0520    4.9440   24.4420 C.2   104  MET104      0.2287
    150  O        -51.0730    5.2820   25.0330 O.2   104  MET104     -0.2864
    151  CB       -48.9690    7.1140   23.9040 C.3   104  MET104      0.0413
    152  CG       -47.9760    8.1840   24.2900 C.3   104  MET104      0.0598
    153  SD       -48.3310    9.7140   23.4020 S.3   104  MET104     -0.1393
    154  CE       -47.0330   10.7920   24.0030 C.3   104  MET104      0.0692
    155  N        -42.7210   11.5990   10.8430 N.3   123  VAL123     -0.1231
    156  CA       -41.3300   11.8450   10.4630 C.3   123  VAL123      0.1692
    157  C        -40.4490   11.1390   11.4760 C.2   123  VAL123      0.2592
    158  O        -40.6170   11.3280   12.6850 O.2   123  VAL123     -0.2718
    159  CB       -40.9630   13.3400   10.4510 C.3   123  VAL123      0.0266
    160  CG1      -39.4610   13.5170   10.1240 C.3   123  VAL123      0.0020
    161  CG2      -41.8290   14.0960    9.4490 C.3   123  VAL123      0.0020
    162  N        -39.5350   10.3090   10.9760 N.am  124  LYS124     -0.1966
    163  CA       -38.5200    9.6520   11.7920 C.3   124  LYS124      0.1728
    164  C        -37.1370    9.8790   11.1810 C.2   124  LYS124      0.2616
    165  O        -37.0300   10.3360   10.0560 O.2   124  LYS124     -0.2715
    166  CB       -38.8140    8.1470   11.8880 C.3   124  LYS124      0.0311
    167  CG       -40.1540    7.8060   12.5510 C.3   124  LYS124      0.0038
    168  CD       -40.0920    7.9750   14.0710 C.3   124  LYS124      0.0206
    169  CE       -41.4770    8.0670   14.7070 C.3   124  LYS124      0.1093
    170  NZ       -42.0040    9.4630   14.6850 N.3   124  LYS124     -0.1314
    171  N        -36.0850    9.5650   11.9300 N.am  125  GLY125     -0.1955
    172  CA       -34.7110    9.6870   11.4330 C.3   125  GLY125      0.1869
    173  C        -34.4190    8.7020   10.3080 C.2   125  GLY125      0.2309
    174  O        -33.9100    9.0790    9.2450 O.2   125  GLY125     -0.2863
    175  N        -33.0850    5.1010   16.1010 N.3   135  LEU135     -0.1231
    176  CA       -32.2670    6.2610   16.4670 C.3   135  LEU135      0.1693
    177  C        -33.0180    7.5970   16.4270 C.2   135  LEU135      0.2592
    178  O        -33.8510    7.8390   15.5500 O.2   135  LEU135     -0.2718
    179  CB       -31.0250    6.3430   15.5830 C.3   135  LEU135      0.0284
    180  CG       -29.9880    5.2440   15.7970 C.3   135  LEU135      0.0019
    181  CD1      -28.8270    5.4450   14.8550 C.3   135  LEU135      0.0001
    182  CD2      -29.5040    5.2080   17.2520 C.3   135  LEU135      0.0001
    183  N        -32.7060    8.4520   17.3990 N.am  136  LYS136     -0.1966
    184  CA       -33.1570    9.8460   17.4140 C.3   136  LYS136      0.1728
    185  C        -32.1900   10.7000   16.5870 C.2   136  LYS136      0.2616
    186  O        -30.9890   10.7260   16.8560 O.2   136  LYS136     -0.2715
    187  CB       -33.2450   10.3680   18.8560 C.3   136  LYS136      0.0311
    188  CG       -34.4060    9.7730   19.6460 C.3   136  LYS136      0.0038
    189  CD       -34.4150   10.2260   21.0970 C.3   136  LYS136      0.0206
    190  CE       -35.6380    9.6870   21.8300 C.3   136  LYS136      0.1093
    191  NZ       -35.6490   10.0340   23.2910 N.3   136  LYS136     -0.1314
    192  N        -32.7150   11.3940   15.5810 N.am  137  VAL137     -0.1963
    193  CA       -31.8840   12.1250   14.6270 C.3   137  VAL137      0.1727
    194  C        -32.2540   13.6090   14.6290 C.2   137  VAL137      0.2616
    195  O        -33.4280   13.9630   14.7350 O.2   137  VAL137     -0.2715
    196  CB       -32.0250   11.5180   13.2040 C.3   137  VAL137      0.0290
    197  CG1      -31.2540   12.3390   12.1680 C.3   137  VAL137      0.0023
    198  CG2      -31.5510   10.0660   13.2020 C.3   137  VAL137      0.0023
    199  N        -31.2360   14.4630   14.5580 N.am  138  TYR138     -0.1960
    200  CA       -31.4110   15.9090   14.4340 C.3   138  TYR138      0.1771
    201  C        -30.9260   16.3710   13.0500 C.2   138  TYR138      0.2619
    202  O        -30.3220   15.5910   12.3130 O.2   138  TYR138     -0.2715
    203  CB       -30.6520   16.6230   15.5530 C.3   138  TYR138      0.0574
    204  CG       -31.1680   16.2730   16.9300 C.ar  138  TYR138     -0.0198
    205  CD1      -32.2160   16.9860   17.5060 C.ar  138  TYR138     -0.0009
    206  CD2      -30.6240   15.2120   17.6460 C.ar  138  TYR138     -0.0009
    207  CE1      -32.6970   16.6610   18.7720 C.ar  138  TYR138      0.0417
    208  CE2      -31.1050   14.8740   18.9070 C.ar  138  TYR138      0.0417
    209  CZ       -32.1360   15.5990   19.4620 C.ar  138  TYR138      0.1957
    210  OH       -32.6030   15.2540   20.7100 O.3   138  TYR138     -0.2866
    211  N        -31.1960   17.6370   12.7190 N.am  139  GLU139     -0.1977
    212  CA       -30.9330   18.2090   11.3870 C.3   139  GLU139      0.1602
    213  C        -29.6220   17.7500   10.7310 C.2   139  GLU139      0.2287
    214  O        -29.6430   17.0650    9.7110 O.2   139  GLU139     -0.2864
    215  CB       -30.9700   19.7510   11.4530 C.3   139  GLU139      0.0415
    216  CG       -30.5760   20.4810   10.1580 C.3   139  GLU139      0.1163
    217  CD       -31.4740   20.1510    8.9760 C.2   139  GLU139      0.3649
    218  OE1      -30.9460   19.7790    7.9030 O.co2 139  GLU139     -0.2457
    219  OE2      -32.7150   20.2650    9.1120 O.co2 139  GLU139     -0.2457
    220  N        -34.7390   18.5590    8.1750 N.3   168  ASP168     -0.1239
    221  CA       -35.9910   18.8080    8.8930 C.3   168  ASP168      0.1674
    222  C        -37.1170   19.3270    8.0280 C.2   168  ASP168      0.2266
    223  O        -38.0440   18.5800    7.7360 O.2   168  ASP168     -0.2867
    224  CB       -35.7230   19.7410   10.0610 C.3   168  ASP168      0.1410
    225  CG       -34.9350   18.9690   11.1790 C.2   168  ASP168      0.3668
    226  OD1      -33.7030   18.7720   11.0490 O.co2 168  ASP168     -0.2456
    227  OD2      -35.3800   18.4650   12.2640 O.co2 168  ASP168     -0.2456
    228  N        -35.9040   10.9510    7.5810 N.3   199  MET199     -0.1245
    229  CA       -35.0740   12.1190    7.3030 C.3   199  MET199      0.1570
    230  C        -33.9240   11.7430    6.3900 C.2   199  MET199      0.2261
    231  O        -33.5870   12.4950    5.4710 O.2   199  MET199     -0.2867
    232  CB       -34.5510   12.7320    8.5990 C.3   199  MET199      0.0387
    233  CG       -35.6470   13.3800    9.4650 C.3   199  MET199      0.0595
    234  SD       -35.0570   13.8340   11.1020 S.3   199  MET199     -0.1393
    235  CE       -34.0430   15.2540   10.6960 C.3   199  MET199      0.0692
@<TRIPOS>BOND
     1   231   230    2
     2   230   229    1
     3   229   228    1
     4   229   232    1
     5   223   222    2
     6   218   217   ar
     7   222   221    1
     8   220   221    1
     9   232   233    1
    10   221   224    1
    11   217   219   ar
    12   217   216    1
    13   174   173    2
    14   161   159    1
    15   233   234    1
    16    30    29    2
    17   214   213    2
    18   165   164    2
    19   224   225    1
    20   160   159    1
    21   216   215    1
    22   173   172    1
    23   159   156    1
    24   156   155    1
    25   156   157    1
    26    31    28    1
    27    29    28    1
    28    28    27    1
    29   235   234    1
    30   213   212    1
    31   162   157   am
    32   162   163    1
    33   226   225   ar
    34   225   227   ar
    35   164   163    1
    36   164   171   am
    37    21    20    2
    38   212   215    1
    39   212   211    1
    40   172   171    1
    41   157   158    2
    42    27    20   am
    43   163   166    1
    44   166   167    1
    45    20    19    1
    46   197   196    1
    47   202   201    2
    48    22    19    1
    49    22    23    1
    50   167   168    1
    51   211   201   am
    52    25    24    2
    53    19    18    1
    54   201   200    1
    55   198   196    1
    56   196   193    1
    57    23    24    1
    58    24    26   am
    59   105   106    1
    60   105   102    1
    61   168   169    1
    62    18    13   am
    63   200   199    1
    64   200   203    1
    65   108   106   am
    66   199   194   am
    67   193   194    1
    68   193   192    1
    69   194   195    2
    70   106   107    2
    71   170   169    1
    72   181   180    1
    73   102   101    1
    74   102   103    1
    75    14    13    2
    76    13    12    1
    77   178   177    2
    78   203   204    1
    79   192   185   am
    80   179   180    1
    81   179   176    1
    82   180   182    1
    83     4     3    2
    84   175   176    1
    85   103   104    2
    86   103   109   am
    87   129   128    1
    88   129   130    1
    89   177   176    1
    90   177   183   am
    91   185   186    2
    92   185   184    1
    93    16    15    1
    94    17    15    1
    95   112   111    2
    96    12    15    1
    97    12    11    1
    98   128   125    1
    99   204   205   ar
   100   204   206   ar
   101     3    11   am
   102     3     2    1
   103     1     2    1
   104   109   110    1
   105   125   124    1
   106   125   126    1
   107   130   124    1
   108   183   184    1
   109   184   187    1
   110   205   207   ar
   111   206   208   ar
   112   124   122   am
   113     2     5    1
   114   111   110    1
   115   111   120   am
   116   122   123    2
   117   122   121    1
   118   110   113    1
   119   126   127    2
   120     8    10   ar
   121     8     6   ar
   122   121   120    1
   123   207   209   ar
   124    10     9   ar
   125   187   188    1
   126   208   209   ar
   127     5     6    1
   128     6     7   ar
   129   113   114    1
   130   209   210    1
   131   188   189    1
   132    32    33    1
   133     9     7   ar
   134   115   114   ar
   135   115   117   ar
   136   114   116   ar
   137   131   132    1
   138   117   119   ar
   139   116   118   ar
   140    39    37    1
   141    37    36    1
   142   119   118   ar
   143    35    34    2
   144    33    36    1
   145    33    34    1
   146   189   190    1
   147    36    38    1
   148   135   132    1
   149   132   133    1
   150   133   134    2
   151    48    46   ar
   152    34    40   am
   153   190   191    1
   154    46    45    1
   155    46    47   ar
   156    45    44    1
   157    62    63    2
   158    62    61    1
   159   145   144    1
   160   136   137    1
   161    60    61    1
   162    91    90    1
   163   146   144    1
   164    40    41    1
   165    64    61    1
   166    64    65    1
   167   144   143    2
   168    44    41    1
   169   153   154    1
   170   153   152    1
   171    41    42    1
   172    90    89    1
   173   151   152    1
   174   151   148    1
   175   137   140    1
   176   137   138    1
   177   141   140    1
   178   141   142    1
   179   147   148    1
   180   147   138   am
   181    66    65    1
   182    66    67    1
   183   143   142    1
   184   149   148    1
   185   149   150    2
   186   138   139    2
   187    75    73    1
   188    42    49   am
   189    42    43    2
   190    89    88    1
   191    49    50    1
   192    59    57    1
   193    88    85    1
   194    72    73    1
   195    72    69    1
   196    73    74    1
   197    50    53    1
   198    50    51    1
   199    57    56    2
   200    57    58    1
   201    53    54    1
   202    68    69    1
   203    56    55    1
   204    71    70    2
   205    69    70    1
   206    85    84    1
   207    85    86    1
   208    52    51    2
   209    87    86    2
   210    70    76   am
   211    54    55    1
   212    84    78   am
   213    86    92   am
   214    99   100    1
   215    99    98    1
   216    78    79    2
   217    78    77    1
   218    76    77    1
   219    92    93    1
   220    97    98    1
   221    97    96    1
   222    77    80    1
   223    93    96    1
   224    93    94    1
   225    82    81   ar
   226    80    81    1
   227    94    95    2
   228    81    83   ar
