@<TRIPOS>MOLECULE
tmp/2vjrB00.pdb
 223 212 0 0 0
SMALL
GASTEIGER

@<TRIPOS>ATOM
      1  N         27.8530  -45.3350   -7.5500 N.3    59  LEU59      -0.1231
      2  CA        27.3320  -46.4350   -6.7120 C.3    59  LEU59       0.1693
      3  C         28.4180  -47.4570   -6.4250 C.2    59  LEU59       0.2592
      4  O         28.5310  -47.9560   -5.2940 O.2    59  LEU59      -0.2718
      5  CB        26.1410  -47.1710   -7.3530 C.3    59  LEU59       0.0284
      6  CG        25.5680  -48.3560   -6.5300 C.3    59  LEU59       0.0019
      7  CD1       25.2070  -47.9050   -5.1210 C.3    59  LEU59       0.0001
      8  CD2       24.3550  -49.0850   -7.2050 C.3    59  LEU59       0.0001
      9  N         29.2060  -47.7740   -7.4520 N.am   60  PHE60      -0.1976
     10  CA        30.2220  -48.8120   -7.3200 C.3    60  PHE60       0.1639
     11  C         31.5190  -48.2960   -6.7270 C.2    60  PHE60       0.2290
     12  O         32.2550  -49.0700   -6.1320 O.2    60  PHE60      -0.2864
     13  CB        30.4310  -49.5360   -8.6520 C.3    60  PHE60       0.0560
     14  CG        29.1800  -50.1470   -9.1590 C.ar   60  PHE60      -0.0200
     15  CD1       28.5150  -51.0840   -8.4010 C.ar   60  PHE60      -0.0042
     16  CD2       28.6090  -49.7290  -10.3560 C.ar   60  PHE60      -0.0042
     17  CE1       27.3130  -51.6240   -8.8550 C.ar   60  PHE60      -0.0003
     18  CE2       27.4200  -50.2680  -10.8130 C.ar   60  PHE60      -0.0003
     19  CZ        26.7750  -51.2110  -10.0610 C.ar   60  PHE60      -0.0000
     20  N         29.7850  -54.9910   -4.6420 N.3    66  LEU66      -0.1245
     21  CA        28.8480  -55.3700   -5.6630 C.3    66  LEU66       0.1561
     22  C         29.5830  -55.8510   -6.9140 C.2    66  LEU66       0.2260
     23  O         29.0320  -56.6210   -7.6960 O.2    66  LEU66      -0.2867
     24  CB        27.9370  -54.1930   -6.0060 C.3    66  LEU66       0.0270
     25  CG        27.0790  -53.6230   -4.8750 C.3    66  LEU66       0.0019
     26  CD1       26.4840  -52.2830   -5.3400 C.3    66  LEU66       0.0001
     27  CD2       25.9900  -54.6050   -4.4150 C.3    66  LEU66       0.0001
     28  N         26.2610  -58.4960   -6.2510 N.3    72  ASN72      -0.1225
     29  CA        25.0570  -58.5400   -7.0490 C.3    72  ASN72       0.1785
     30  C         25.1220  -57.7740   -8.3670 C.2    72  ASN72       0.2597
     31  O         24.2160  -57.9070   -9.1850 O.2    72  ASN72      -0.2718
     32  CB        23.8020  -58.1480   -6.2570 C.3    72  ASN72       0.1169
     33  CG        22.5310  -58.7300   -6.8790 C.2    72  ASN72       0.2627
     34  OD1       21.6690  -58.0000   -7.3950 O.2    72  ASN72      -0.2716
     35  ND2       22.4360  -60.0580   -6.8740 N.am   72  ASN72      -0.0877
     36  N         26.1940  -57.0090   -8.5850 N.am   73  ALA73      -0.1979
     37  CA        26.4380  -56.4030   -9.8990 C.3    73  ALA73       0.1597
     38  C         27.6270  -57.0660  -10.6080 C.2    73  ALA73       0.2287
     39  O         28.3160  -56.4260  -11.3900 O.2    73  ALA73      -0.2864
     40  CB        26.6260  -54.8640   -9.7720 C.3    73  ALA73       0.0319
     41  N         26.4580  -59.9750  -17.0390 N.3    77  ARG77      -0.1231
     42  CA        25.0190  -60.1610  -17.0740 C.3    77  ARG77       0.1694
     43  C         24.2960  -59.3840  -15.9640 C.2    77  ARG77       0.2591
     44  O         23.2980  -58.7290  -16.2440 O.2    77  ARG77      -0.2718
     45  CB        24.6720  -61.6430  -16.9790 C.3    77  ARG77       0.0321
     46  CG        23.1740  -61.9420  -17.0920 C.3    77  ARG77       0.0489
     47  CD        22.8640  -63.3940  -16.6870 C.3    77  ARG77       0.2205
     48  NE        23.1190  -63.7030  -15.2720 N.pl3  77  ARG77      -0.0865
     49  CZ        22.3120  -63.3640  -14.2560 C.cat  77  ARG77       0.5346
     50  NH1       21.1930  -62.6680  -14.4600 N.pl3  77  ARG77       0.1354
     51  NH2       22.6270  -63.7250  -13.0150 N.pl3  77  ARG77       0.1354
     52  N         24.8070  -59.4420  -14.7340 N.am   78  ARG78      -0.1980
     53  CA        24.1490  -58.7960  -13.5970 C.3    78  ARG78       0.1597
     54  C         24.3220  -57.2950  -13.6210 C.2    78  ARG78       0.2287
     55  O         23.4020  -56.5520  -13.3030 O.2    78  ARG78      -0.2864
     56  CB        24.6340  -59.3690  -12.2590 C.3    78  ARG78       0.0334
     57  CG        23.8060  -60.5620  -11.7910 C.3    78  ARG78       0.0492
     58  CD        23.9330  -60.8970  -10.3140 C.3    78  ARG78       0.2205
     59  NE        24.9350  -61.9370  -10.1720 N.pl3  78  ARG78      -0.0865
     60  CZ        24.7030  -63.2300   -9.9860 C.cat  78  ARG78       0.5346
     61  NH1       23.4910  -63.7060   -9.7960 N.pl3  78  ARG78       0.1354
     62  NH2       25.7360  -64.0450   -9.9330 N.pl3  78  ARG78       0.1354
     63  N         21.8240  -55.9310  -15.9560 N.3    81  ALA81      -0.1231
     64  CA        20.4990  -55.9610  -15.3630 C.3    81  ALA81       0.1694
     65  C         20.3560  -54.7450  -14.4280 C.2    81  ALA81       0.2592
     66  O         19.3580  -54.0180  -14.4750 O.2    81  ALA81      -0.2718
     67  CB        20.2850  -57.2960  -14.6090 C.3    81  ALA81       0.0304
     68  N         21.3800  -54.5160  -13.6070 N.am   82  CYS82      -0.1970
     69  CA        21.4030  -53.3700  -12.7190 C.3    82  CYS82       0.1712
     70  C         21.3740  -52.0640  -13.4900 C.2    82  CYS82       0.2296
     71  O         20.6010  -51.1910  -13.1360 O.2    82  CYS82      -0.2864
     72  CB        22.6080  -53.4160  -11.8220 C.3    82  CYS82       0.0983
     73  SG        22.7780  -51.9770  -10.7780 S.3    82  CYS82      -0.0798
     74  N         20.1410  -51.6880  -16.4050 N.3    84  ARG84      -0.1231
     75  CA        18.8130  -51.6380  -17.0150 C.3    84  ARG84       0.1694
     76  C         17.7560  -51.1360  -16.0350 C.2    84  ARG84       0.2592
     77  O         16.9100  -50.3340  -16.4110 O.2    84  ARG84      -0.2718
     78  CB        18.4180  -53.0150  -17.5470 C.3    84  ARG84       0.0321
     79  CG        17.0520  -53.0720  -18.2260 C.3    84  ARG84       0.0489
     80  CD        16.4590  -54.5110  -18.2170 C.3    84  ARG84       0.2205
     81  NE        16.1860  -54.9750  -16.8480 N.pl3  84  ARG84      -0.0865
     82  CZ        16.3110  -56.2380  -16.4280 C.cat  84  ARG84       0.5346
     83  NH1       16.7000  -57.2120  -17.2590 N.pl3  84  ARG84       0.1354
     84  NH2       16.0730  -56.5340  -15.1520 N.pl3  84  ARG84       0.1354
     85  N         17.8010  -51.6140  -14.7870 N.am   85  ASP85      -0.1960
     86  CA        16.8510  -51.1840  -13.7410 C.3    85  ASP85       0.1840
     87  C         17.0080  -49.7060  -13.4050 C.2    85  ASP85       0.2621
     88  O         16.0370  -49.0170  -13.0900 O.2    85  ASP85      -0.2715
     89  CB        17.0610  -51.9650  -12.4530 C.3    85  ASP85       0.1450
     90  CG        16.5440  -53.3590  -12.5250 C.2    85  ASP85       0.3671
     91  OD1       16.1690  -53.7940  -13.6220 O.co2  85  ASP85      -0.2456
     92  OD2       16.5070  -54.0240  -11.4750 O.co2  85  ASP85      -0.2456
     93  N         18.2330  -49.2170  -13.4360 N.am   86  MET86      -0.1977
     94  CA        18.4360  -47.8140  -13.1980 C.3    86  MET86       0.1605
     95  C         17.6900  -47.0390  -14.2730 C.2    86  MET86       0.2287
     96  O         17.0650  -46.0300  -13.9870 O.2    86  MET86      -0.2864
     97  CB        19.9280  -47.4530  -13.1940 C.3    86  MET86       0.0413
     98  CG        20.7300  -47.9330  -11.9550 C.3    86  MET86       0.0598
     99  SD        22.5450  -47.6620  -12.0530 S.3    86  MET86      -0.1393
    100  CE        22.7740  -46.0340  -11.3380 C.3    86  MET86       0.0692
    101  N         15.0660  -48.0820  -16.1790 N.3    88  ILE88      -0.1231
    102  CA        13.6330  -48.2750  -16.0130 C.3    88  ILE88       0.1692
    103  C         13.0660  -47.3020  -14.9670 C.2    88  ILE88       0.2591
    104  O         12.0420  -46.6750  -15.2030 O.2    88  ILE88      -0.2718
    105  CB        13.2870  -49.7390  -15.6070 C.3    88  ILE88       0.0266
    106  CG1       13.4710  -50.7040  -16.7820 C.3    88  ILE88       0.0019
    107  CG2       11.8520  -49.8320  -15.1080 C.3    88  ILE88       0.0020
    108  CD1       13.4590  -52.1710  -16.3660 C.3    88  ILE88       0.0001
    109  N         13.7310  -47.1670  -13.8220 N.am   89  ILE89      -0.1980
    110  CA        13.2170  -46.3020  -12.7530 C.3    89  ILE89       0.1595
    111  C         13.3030  -44.8370  -13.1400 C.2    89  ILE89       0.2287
    112  O         12.3730  -44.0800  -12.9010 O.2    89  ILE89      -0.2864
    113  CB        13.9500  -46.5290  -11.4230 C.3    89  ILE89       0.0276
    114  CG1       13.6650  -47.9500  -10.9090 C.3    89  ILE89       0.0022
    115  CG2       13.5310  -45.4790  -10.3800 C.3    89  ILE89       0.0022
    116  CD1       14.5970  -48.3890   -9.8020 C.3    89  ILE89       0.0001
    117  N         13.0810  -43.7890  -16.0160 N.3    91  ARG91      -0.1231
    118  CA        12.0770  -43.6050  -17.0570 C.3    91  ARG91       0.1694
    119  C         10.6820  -43.3090  -16.4860 C.2    91  ARG91       0.2592
    120  O         10.0500  -42.3260  -16.8690 O.2    91  ARG91      -0.2718
    121  CB        12.0630  -44.8270  -17.9650 C.3    91  ARG91       0.0321
    122  CG        11.1750  -44.6800  -19.1550 C.3    91  ARG91       0.0489
    123  CD        11.6250  -45.5790  -20.2910 C.3    91  ARG91       0.2205
    124  NE        11.7870  -46.9660  -19.8780 N.pl3  91  ARG91      -0.0865
    125  CZ        10.7830  -47.8200  -19.7480 C.cat  91  ARG91       0.5346
    126  NH1        9.5410  -47.4400  -20.0000 N.pl3  91  ARG91       0.1354
    127  NH2       11.0270  -49.0710  -19.3680 N.pl3  91  ARG91       0.1354
    128  N         10.2330  -44.1360  -15.5390 N.am   92  TYR92      -0.1976
    129  CA         8.9380  -43.9460  -14.8640 C.3    92  TYR92       0.1639
    130  C          8.8980  -42.6960  -13.9960 C.2    92  TYR92       0.2290
    131  O          7.8130  -42.1560  -13.7540 O.2    92  TYR92      -0.2864
    132  CB         8.5290  -45.1940  -14.0450 C.3    92  TYR92       0.0560
    133  CG         8.1000  -46.3560  -14.9250 C.ar   92  TYR92      -0.0198
    134  CD1        6.8740  -46.3450  -15.5760 C.ar   92  TYR92      -0.0009
    135  CD2        8.9310  -47.4390  -15.1450 C.ar   92  TYR92      -0.0009
    136  CE1        6.4770  -47.4100  -16.4120 C.ar   92  TYR92       0.0417
    137  CE2        8.5510  -48.5000  -15.9740 C.ar   92  TYR92       0.0417
    138  CZ         7.3220  -48.4820  -16.6040 C.ar   92  TYR92       0.1957
    139  OH         6.9450  -49.5260  -17.4390 O.3    92  TYR92      -0.2866
    140  N          3.2130  -49.1950  -12.2300 N.3   108  ARG108     -0.1231
    141  CA         3.9200  -49.9730  -13.2380 C.3   108  ARG108      0.1694
    142  C          5.3480  -50.3490  -12.8700 C.2   108  ARG108      0.2592
    143  O          5.9460  -51.1990  -13.5290 O.2   108  ARG108     -0.2718
    144  CB         3.9200  -49.2190  -14.5590 C.3   108  ARG108      0.0321
    145  CG         2.5210  -48.9420  -15.0580 C.3   108  ARG108      0.0489
    146  CD         2.5260  -48.5310  -16.5030 C.3   108  ARG108      0.2205
    147  NE         1.1670  -48.3380  -16.9840 N.pl3 108  ARG108     -0.0865
    148  CZ         0.8410  -48.0630  -18.2420 C.cat 108  ARG108      0.5346
    149  NH1        1.7730  -47.9270  -19.1800 N.pl3 108  ARG108      0.1354
    150  NH2       -0.4350  -47.9200  -18.5600 N.pl3 108  ARG108      0.1354
    151  N          5.8940  -49.7320  -11.8320 N.am  109  CYS109     -0.1970
    152  CA         7.2840  -49.9060  -11.5180 C.3   109  CYS109      0.1712
    153  C          7.4840  -50.3170  -10.0720 C.2   109  CYS109      0.2296
    154  O          8.1030  -51.3380   -9.8040 O.2   109  CYS109     -0.2864
    155  CB         8.0290  -48.6050  -11.8030 C.3   109  CYS109      0.0983
    156  SG         9.7940  -48.7150  -11.5860 S.3   109  CYS109     -0.0798
    157  N          8.0380  -54.3770   -6.4810 N.3   113  LEU113     -0.1245
    158  CA         9.4620  -54.3200   -6.7860 C.3   113  LEU113      0.1561
    159  C         10.3460  -54.8080   -5.6350 C.2   113  LEU113      0.2260
    160  O         11.2590  -55.5980   -5.8470 O.2   113  LEU113     -0.2867
    161  CB         9.8590  -52.9040   -7.2140 C.3   113  LEU113      0.0270
    162  CG        11.2860  -52.7560   -7.7280 C.3   113  LEU113      0.0019
    163  CD1       11.6600  -53.8950   -8.6840 C.3   113  LEU113      0.0001
    164  CD2       11.4800  -51.3910   -8.3760 C.3   113  LEU113      0.0001
    165  N         10.2800  -58.6060   -5.4070 N.3   116  THR116     -0.1203
    166  CA        11.1200  -59.1030   -6.4900 C.3   116  THR116      0.1994
    167  C         12.5930  -59.1310   -6.0550 C.2   116  THR116      0.2617
    168  O         13.2230  -60.1870   -6.0350 O.2   116  THR116     -0.2717
    169  CB        10.9710  -58.2150   -7.7270 C.3   116  THR116      0.1784
    170  OG1        9.5940  -58.1700   -8.1060 O.3   116  THR116     -0.2211
    171  CG2       11.8150  -58.7350   -8.8890 C.3   116  THR116      0.0376
    172  N         13.1330  -57.9800   -5.6760 N.am  117  TYR117     -0.1975
    173  CA        14.5530  -57.9010   -5.3050 C.3   117  TYR117      0.1639
    174  C         14.9340  -58.8460   -4.1760 C.2   117  TYR117      0.2290
    175  O         15.9790  -59.4810   -4.2370 O.2   117  TYR117     -0.2864
    176  CB        14.9590  -56.4750   -4.9250 C.3   117  TYR117      0.0560
    177  CG        15.1020  -55.5040   -6.0830 C.ar  117  TYR117     -0.0198
    178  CD1       15.6800  -55.8860   -7.2600 C.ar  117  TYR117     -0.0009
    179  CD2       14.6890  -54.1880   -5.9660 C.ar  117  TYR117     -0.0009
    180  CE1       15.8070  -54.9980   -8.3160 C.ar  117  TYR117      0.0417
    181  CE2       14.8350  -53.2880   -6.9980 C.ar  117  TYR117      0.0417
    182  CZ        15.3980  -53.6950   -8.1750 C.ar  117  TYR117      0.1957
    183  OH        15.5590  -52.8300   -9.2380 O.3   117  TYR117     -0.2866
    184  N         15.1720  -62.2490   -5.4290 N.3   120  LEU120     -0.1245
    185  CA        16.4010  -62.3750   -6.2040 C.3   120  LEU120      0.1561
    186  C         17.6780  -62.3390   -5.4010 C.2   120  LEU120      0.2260
    187  O         18.7060  -62.7490   -5.9090 O.2   120  LEU120     -0.2867
    188  CB        16.4860  -61.2800   -7.2450 C.3   120  LEU120      0.0270
    189  CG        15.5800  -61.4830   -8.4460 C.3   120  LEU120      0.0019
    190  CD1       15.5490  -60.1730   -9.2550 C.3   120  LEU120      0.0001
    191  CD2       16.0690  -62.6480   -9.2730 C.3   120  LEU120      0.0001
    192  N         18.8440  -59.4060   -4.4370 N.3   122  THR122     -0.1204
    193  CA        19.3660  -58.1150   -4.8080 C.3   122  THR122      0.1979
    194  C         19.2910  -57.1970   -3.6080 C.2   122  THR122      0.2459
    195  O         18.2310  -57.0640   -3.0180 O.2   122  THR122     -0.2732
    196  CB        18.5470  -57.5170   -5.9560 C.3   122  THR122      0.1783
    197  OG1       18.9130  -58.1720   -7.1780 O.3   122  THR122     -0.2211
    198  CG2       18.8230  -56.0240   -6.0910 C.3   122  THR122      0.0376
    199  N         20.4180  -56.5790   -3.2140 N.am  123  PRO123     -0.2728
    200  CA        20.4060  -55.7910   -1.9870 C.3   123  PRO123      0.1401
    201  C         19.6530  -54.4960   -2.1950 C.2   123  PRO123      0.2269
    202  O         20.1020  -53.6020   -2.9170 O.2   123  PRO123     -0.2865
    203  CB        21.8850  -55.5280   -1.6990 C.3   123  PRO123      0.0296
    204  CG        22.5720  -55.7140   -2.9480 C.3   123  PRO123      0.0237
    205  CD        21.7400  -56.5740   -3.8530 C.3   123  PRO123      0.0939
    206  N         21.2560  -51.0510   -1.5700 N.3   126  SER126     -0.1202
    207  CA        22.1020  -50.5750   -2.6450 C.3   126  SER126      0.2020
    208  C         21.2640  -49.9970   -3.7820 C.2   126  SER126      0.2618
    209  O         21.6090  -48.9670   -4.3520 O.2   126  SER126     -0.2717
    210  CB        22.9630  -51.7010   -3.1670 C.3   126  SER126      0.2103
    211  OG        23.8150  -52.1930   -2.1560 O.3   126  SER126     -0.2182
    212  N         20.1520  -50.6530   -4.1070 N.am  127  VAL127     -0.1979
    213  CA        19.2600  -50.1280   -5.1230 C.3   127  VAL127      0.1595
    214  C         18.6790  -48.7950   -4.6980 C.2   127  VAL127      0.2287
    215  O         18.5790  -47.8810   -5.5220 O.2   127  VAL127     -0.2864
    216  CB        18.1240  -51.0890   -5.4630 C.3   127  VAL127      0.0276
    217  CG1       17.2790  -50.5200   -6.5830 C.3   127  VAL127      0.0022
    218  CG2       18.6850  -52.4380   -5.8880 C.3   127  VAL127      0.0022
    219  N         21.3750  -46.1650   -5.3910 N.3   130  ALA130     -0.1245
    220  CA        21.4750  -45.8590   -6.8170 C.3   130  ALA130      0.1562
    221  C         20.3830  -44.8840   -7.2660 C.2   130  ALA130      0.2260
    222  O         20.6360  -43.9990   -8.0800 O.2   130  ALA130     -0.2867
    223  CB        21.4000  -47.1300   -7.6470 C.3   130  ALA130      0.0290
@<TRIPOS>BOND
     1   123   124    1
     2   123   122    1
     3   126   125    1
     4   124   125    2
     5   125   127    1
     6   149   148    1
     7   122   121    1
     8   150   148    1
     9   148   147    2
    10    79    80    1
    11    79    78    1
    12    80    81    1
    13   121   118    1
    14    78    75    1
    15   139   138    1
    16    83    82    1
    17    46    45    1
    18    46    47    1
    19    42    41    1
    20    42    45    1
    21    42    43    1
    22   118   119    1
    23   118   117    1
    24    75    74    1
    25    75    76    1
    26   147   146    1
    27   120   119    2
    28    81    82    2
    29   106   108    1
    30   106   105    1
    31    47    48    1
    32   138   136   ar
    33   138   137   ar
    34   146   145    1
    35   119   128   am
    36    82    84    1
    37   136   134   ar
    38    77    76    2
    39    44    43    2
    40   101   102    1
    41    76    85   am
    42   102   105    1
    43   102   103    1
    44   137   135   ar
    45    43    52   am
    46    63    64    1
    47   105   107    1
    48   134   133   ar
    49   128   129    1
    50    64    67    1
    51    64    65    1
    52    48    49    2
    53   104   103    2
    54   135   133   ar
    55   145   144    1
    56   103   109   am
    57   133   132    1
    58   129   132    1
    59   129   130    1
    60    85    86    1
    61    52    53    1
    62   144   141    1
    63    66    65    2
    64    50    49    1
    65    65    68   am
    66    95    96    2
    67    95    94    1
    68    49    51    1
    69   130   131    2
    70   109   110    1
    71    86    87    1
    72    86    89    1
    73    91    90   ar
    74    54    53    1
    75    54    55    2
    76    68    69    1
    77    53    56    1
    78   143   142    2
    79    70    71    2
    80    70    69    1
    81    93    87   am
    82    93    94    1
    83    87    88    2
    84   141   142    1
    85   141   140    1
    86    94    97    1
    87    97    98    1
    88   111   112    2
    89   111   110    1
    90   142   151   am
    91   110   113    1
    92    69    72    1
    93    90    89    1
    94    90    92   ar
    95    56    57    1
    96    99    98    1
    97    99   100    1
    98   151   152    1
    99    72    73    1
   100   155   156    1
   101   155   152    1
   102    57    58    1
   103   152   153    1
   104   113   114    1
   105   113   115    1
   106    39    38    2
   107   114   116    1
   108    18    16   ar
   109    18    19   ar
   110    38    37    1
   111    16    14   ar
   112    58    59    1
   113    59    60    2
   114   153   154    2
   115    19    17   ar
   116    60    62    1
   117    60    61    1
   118    37    40    1
   119    37    36    1
   120   191   189    1
   121   190   189    1
   122   183   182    1
   123    31    30    2
   124    14    13    1
   125    14    15   ar
   126   171   169    1
   127    17    15   ar
   128   163   162    1
   129    13    10    1
   130    36    30   am
   131   189   188    1
   132   164   162    1
   133    30    29    1
   134   180   182   ar
   135   180   178   ar
   136   182   181   ar
   137   170   169    1
   138   222   221    2
   139   162   161    1
   140   169   166    1
   141    23    22    2
   142   223   220    1
   143     1     2    1
   144     9    10    1
   145     9     3   am
   146    34    33    2
   147     5     2    1
   148     5     6    1
   149    10    11    1
   150   221   220    1
   151   178   177   ar
   152   188   185    1
   153   161   158    1
   154     8     6    1
   155   197   196    1
   156    29    32    1
   157    29    28    1
   158   181   179   ar
   159    22    21    1
   160    33    35   am
   161    33    32    1
   162   220   219    1
   163   158   157    1
   164   158   159    1
   165    11    12    2
   166     2     3    1
   167   217   216    1
   168     6     7    1
   169   166   167    1
   170   166   165    1
   171     3     4    2
   172   185   184    1
   173   185   186    1
   174   198   196    1
   175   177   179   ar
   176   177   176    1
   177   167   168    2
   178   167   172   am
   179    24    21    1
   180    24    25    1
   181   196   193    1
   182   187   186    2
   183   218   216    1
   184   160   159    2
   185   172   173    1
   186    21    20    1
   187   215   214    2
   188   216   213    1
   189    26    25    1
   190   173   176    1
   191   173   174    1
   192   213   214    1
   193   213   212    1
   194    25    27    1
   195   193   192    1
   196   193   194    1
   197   209   208    2
   198   175   174    2
   199   212   208   am
   200   205   199    1
   201   205   204    1
   202   208   207    1
   203   194   199   am
   204   194   195    2
   205   199   200    1
   206   210   207    1
   207   210   211    1
   208   204   203    1
   209   202   201    2
   210   207   206    1
   211   201   200    1
   212   200   203    1
