@<TRIPOS>MOLECULE
tmp/2vjrB01.pdb
 137 130 0 0 0
SMALL
GASTEIGER

@<TRIPOS>ATOM
      1  N         -0.3720  -23.1940  -16.0010 N.3    32  LYS32      -0.1231
      2  CA         0.4790  -22.0140  -15.9460 C.3    32  LYS32       0.1693
      3  C          1.9610  -22.4080  -15.9420 C.2    32  LYS32       0.2591
      4  O          2.7510  -21.8040  -16.6370 O.2    32  LYS32      -0.2718
      5  CB         0.1360  -21.1510  -14.7270 C.3    32  LYS32       0.0285
      6  CG         0.5470  -19.6700  -14.8470 C.3    32  LYS32       0.0035
      7  CD         0.6670  -19.0460  -13.4620 C.3    32  LYS32       0.0206
      8  CE         1.0350  -17.5630  -13.4800 C.3    32  LYS32       0.1093
      9  NZ         1.2460  -17.0620  -12.0710 N.3    32  LYS32      -0.1314
     10  N          2.3300  -23.4470  -15.2090 N.am   33  GLU33      -0.1979
     11  CA         3.7440  -23.8130  -15.0740 C.3    33  GLU33       0.1602
     12  C          4.2110  -24.8900  -16.0660 C.2    33  GLU33       0.2287
     13  O          5.2970  -25.4700  -15.8940 O.2    33  GLU33      -0.2864
     14  CB         4.0210  -24.2930  -13.6410 C.3    33  GLU33       0.0415
     15  CG         3.7640  -23.2460  -12.5680 C.3    33  GLU33       0.1163
     16  CD         4.7510  -22.0890  -12.6210 C.2    33  GLU33       0.3649
     17  OE1        5.8510  -22.2250  -12.0290 O.co2  33  GLU33      -0.2457
     18  OE2        4.4150  -21.0420  -13.2390 O.co2  33  GLU33      -0.2457
     19  N          5.1990  -25.0430  -19.3150 N.3    35  ASN35      -0.1225
     20  CA         6.4310  -24.8760  -20.0690 C.3    35  ASN35       0.1785
     21  C          7.6590  -25.2560  -19.2340 C.2    35  ASN35       0.2597
     22  O          8.5800  -25.9000  -19.7160 O.2    35  ASN35      -0.2718
     23  CB         6.5670  -23.4420  -20.5670 C.3    35  ASN35       0.1169
     24  CG         5.7510  -23.1670  -21.8120 C.2    35  ASN35       0.2627
     25  OD1        5.6560  -23.9980  -22.7320 O.2    35  ASN35      -0.2716
     26  ND2        5.1750  -21.9840  -21.8600 N.am   35  ASN35      -0.0877
     27  N          7.6690  -24.8500  -17.9770 N.am   36  LYS36      -0.1980
     28  CA         8.7430  -25.2140  -17.0890 C.3    36  LYS36       0.1596
     29  C          8.7700  -26.7230  -16.9340 C.2    36  LYS36       0.2287
     30  O          9.8480  -27.3220  -16.9020 O.2    36  LYS36      -0.2864
     31  CB         8.5780  -24.5210  -15.7310 C.3    36  LYS36       0.0298
     32  CG         8.8870  -23.0200  -15.7780 C.3    36  LYS36       0.0038
     33  CD         8.1350  -22.2050  -14.7340 C.3    36  LYS36       0.0206
     34  CE         8.8340  -22.1750  -13.4070 C.3    36  LYS36       0.1093
     35  NZ         8.1270  -21.2450  -12.4970 N.3    36  LYS36      -0.1314
     36  N          7.7340  -29.0980  -19.0400 N.3    38  LEU38      -0.1231
     37  CA         8.2960  -29.6440  -20.2550 C.3    38  LEU38       0.1693
     38  C          9.8260  -29.5240  -20.2770 C.2    38  LEU38       0.2592
     39  O         10.5230  -30.4620  -20.6760 O.2    38  LEU38      -0.2718
     40  CB         7.6630  -28.9650  -21.4810 C.3    38  LEU38       0.0284
     41  CG         6.1650  -29.2480  -21.7360 C.3    38  LEU38       0.0019
     42  CD1        5.6360  -28.4360  -22.8940 C.3    38  LEU38       0.0001
     43  CD2        5.9300  -30.7260  -21.9770 C.3    38  LEU38       0.0001
     44  N         10.3670  -28.4010  -19.8260 N.am   39  ASP39      -0.1960
     45  CA        11.8350  -28.2750  -19.7470 C.3    39  ASP39       0.1840
     46  C         12.4470  -29.2450  -18.7340 C.2    39  ASP39       0.2621
     47  O         13.5460  -29.7690  -18.9340 O.2    39  ASP39      -0.2715
     48  CB        12.2440  -26.8360  -19.4440 C.3    39  ASP39       0.1450
     49  CG        12.3400  -25.9920  -20.7060 C.2    39  ASP39       0.3671
     50  OD1       12.7280  -26.5570  -21.7580 O.co2  39  ASP39      -0.2456
     51  OD2       12.0360  -24.7840  -20.6540 O.co2  39  ASP39      -0.2456
     52  N         11.7060  -29.4990  -17.6680 N.am   40  ALA40      -0.1977
     53  CA        12.1760  -30.3570  -16.6040 C.3    40  ALA40       0.1597
     54  C         12.1960  -31.8060  -17.0790 C.2    40  ALA40       0.2287
     55  O         13.1760  -32.5080  -16.8920 O.2    40  ALA40      -0.2864
     56  CB        11.3110  -30.1770  -15.3330 C.3    40  ALA40       0.0319
     57  N         12.2930  -32.5780  -20.1900 N.3    42  ASN42      -0.1240
     58  CA        13.3190  -32.5810  -21.2360 C.3    42  ASN42       0.1653
     59  C         14.7310  -32.6480  -20.6640 C.2    42  ASN42       0.2266
     60  O         15.6100  -33.2480  -21.2690 O.2    42  ASN42      -0.2867
     61  CB        13.1730  -31.3580  -22.1460 C.3    42  ASN42       0.1155
     62  CG        14.0780  -31.4250  -23.3660 C.2    42  ASN42       0.2627
     63  OD1       14.1760  -32.4650  -24.0320 O.2    42  ASN42      -0.2716
     64  ND2       14.7510  -30.3130  -23.6660 N.am   42  ASN42      -0.0877
     65  N         18.0070  -30.5660  -14.1450 N.3   142  VAL142     -0.1231
     66  CA        16.7820  -29.7800  -14.1780 C.3   142  VAL142      0.1692
     67  C         17.0810  -28.3160  -13.8510 C.2   142  VAL142      0.2592
     68  O         16.4430  -27.4130  -14.3990 O.2   142  VAL142     -0.2718
     69  CB        15.7310  -30.3280  -13.1980 C.3   142  VAL142      0.0266
     70  CG1       14.5320  -29.3960  -13.1120 C.3   142  VAL142      0.0020
     71  CG2       15.2970  -31.7200  -13.6070 C.3   142  VAL142      0.0020
     72  N         18.0670  -28.0940  -12.9780 N.am  143  ASN143     -0.1974
     73  CA        18.4180  -26.7550  -12.4900 C.3   143  ASN143      0.1688
     74  C         19.4400  -25.9790  -13.3340 C.2   143  ASN143      0.2292
     75  O         19.5080  -24.7530  -13.2230 O.2   143  ASN143     -0.2864
     76  CB        18.9450  -26.8320  -11.0430 C.3   143  ASN143      0.1181
     77  CG        17.8350  -26.7670   -9.9970 C.2   143  ASN143      0.2629
     78  OD1       16.8000  -26.1300  -10.2030 O.2   143  ASN143     -0.2716
     79  ND2       18.0610  -27.4110   -8.8590 N.am  143  ASN143     -0.0877
     80  N         20.5700  -26.0210  -17.2450 N.3   145  PRO145     -0.2116
     81  CA        20.4290  -26.4830  -18.6360 C.3   145  PRO145      0.1372
     82  C         20.8330  -25.4740  -19.7520 C.2   145  PRO145      0.2244
     83  O         21.2720  -24.3570  -19.4740 O.2   145  PRO145     -0.2868
     84  CB        18.9170  -26.7200  -18.7170 C.3   145  PRO145      0.0268
     85  CG        18.3340  -25.5770  -17.8270 C.3   145  PRO145      0.0207
     86  CD        19.4870  -25.0580  -16.9610 C.3   145  PRO145      0.0892
     87  N         17.8140  -22.1960  -21.3850 N.3   148  VAL148     -0.1231
     88  CA        16.4260  -22.0480  -20.9560 C.3   148  VAL148      0.1692
     89  C         16.2460  -20.6780  -20.2950 C.2   148  VAL148      0.2593
     90  O         17.1520  -20.1710  -19.6200 O.2   148  VAL148     -0.2718
     91  CB        15.9900  -23.1330  -19.9600 C.3   148  VAL148      0.0266
     92  CG1       14.5050  -22.9990  -19.6870 C.3   148  VAL148      0.0020
     93  CG2       16.3090  -24.5350  -20.4970 C.3   148  VAL148      0.0020
     94  N         15.0720  -20.0910  -20.4940 N.am  149  THR149     -0.1939
     95  CA        14.7420  -18.8230  -19.8720 C.3   149  THR149      0.2028
     96  C         14.9140  -18.9080  -18.3540 C.2   149  THR149      0.2642
     97  O         14.4930  -19.8780  -17.7290 O.2   149  THR149     -0.2714
     98  CB        13.3050  -18.4130  -20.2000 C.3   149  THR149      0.1808
     99  OG1       13.1190  -18.4460  -21.6150 O.3   149  THR149     -0.2208
    100  CG2       12.9990  -17.0100  -19.6850 C.3   149  THR149      0.0379
    101  N         15.5420  -17.8920  -17.7700 N.am  150  ARG150     -0.1963
    102  CA        15.7840  -17.8700  -16.3320 C.3   150  ARG150      0.1729
    103  C         14.5030  -17.6580  -15.5170 C.2   150  ARG150      0.2617
    104  O         13.6890  -16.7820  -15.8040 O.2   150  ARG150     -0.2715
    105  CB        16.8310  -16.8180  -15.9680 C.3   150  ARG150      0.0348
    106  CG        18.2540  -17.3810  -15.8580 C.3   150  ARG150      0.0492
    107  CD        18.5650  -17.9640  -14.4380 C.3   150  ARG150      0.2205
    108  NE        18.4890  -16.9570  -13.3690 N.pl3 150  ARG150     -0.0865
    109  CZ        19.3610  -15.9590  -13.1890 C.cat 150  ARG150      0.5346
    110  NH1       20.4020  -15.8090  -14.0030 N.pl3 150  ARG150      0.1354
    111  NH2       19.1950  -15.0910  -12.1850 N.pl3 150  ARG150      0.1354
    112  N         14.3450  -18.5010  -14.5010 N.am  151  GLY151     -0.1940
    113  CA        13.2320  -18.4110  -13.5680 C.3   151  GLY151      0.2014
    114  C         13.4110  -19.4140  -12.4430 C.2   151  GLY151      0.2639
    115  O         14.5060  -19.9480  -12.2460 O.2   151  GLY151     -0.2714
    116  N         12.3260  -19.6770  -11.7200 N.am  152  ASP152     -0.1957
    117  CA        12.3530  -20.4880  -10.5070 C.3   152  ASP152      0.1840
    118  C         11.7000  -21.8460  -10.7670 C.2   152  ASP152      0.2622
    119  O         10.5080  -21.9150  -11.0350 O.2   152  ASP152     -0.2715
    120  CB        11.5990  -19.7410   -9.3940 C.3   152  ASP152      0.1450
    121  CG        11.8250  -20.3430   -8.0230 C.2   152  ASP152      0.3671
    122  OD1       11.8730  -21.5850   -7.9090 O.co2 152  ASP152     -0.2456
    123  OD2       11.9520  -19.5620   -7.0530 O.co2 152  ASP152     -0.2456
    124  N         12.4770  -22.9190  -10.6670 N.am  153  CYS153     -0.1968
    125  CA        11.9680  -24.2670  -10.9230 C.3   153  CYS153      0.1712
    126  C         11.9280  -25.1390   -9.6690 C.2   153  CYS153      0.2296
    127  O         11.6540  -26.3420   -9.7370 O.2   153  CYS153     -0.2864
    128  CB        12.8110  -24.9200  -11.9980 C.3   153  CYS153      0.0983
    129  SG        12.5390  -24.1840  -13.6330 S.3   153  CYS153     -0.0798
    130  N          9.0210  -27.5940   -9.0960 N.3   156  LEU156     -0.1245
    131  CA         9.1780  -28.7900   -9.9390 C.3   156  LEU156      0.1561
    132  C         10.3500  -29.6660   -9.4770 C.2   156  LEU156      0.2260
    133  O         10.2880  -30.8850   -9.5610 O.2   156  LEU156     -0.2867
    134  CB         9.3540  -28.4230  -11.4310 C.3   156  LEU156      0.0270
    135  CG         8.1360  -27.8840  -12.2090 C.3   156  LEU156      0.0019
    136  CD1        8.5460  -27.0950  -13.4510 C.3   156  LEU156      0.0001
    137  CD2        7.1700  -28.9960  -12.5900 C.3   156  LEU156      0.0001
@<TRIPOS>BOND
     1    63    62    2
     2    64    62   am
     3    62    61    1
     4    42    41    1
     5    25    24    2
     6    61    58    1
     7    43    41    1
     8    26    24   am
     9    24    23    1
    10    50    49   ar
    11    41    40    1
    12    99    98    1
    13    40    37    1
    14    87    88    1
    15    60    59    2
    16    58    59    1
    17    58    57    1
    18    88    89    1
    19    88    91    1
    20    49    51   ar
    21    49    48    1
    22    39    38    2
    23    23    20    1
    24    93    91    1
    25    94    89   am
    26    94    95    1
    27    89    90    2
    28    38    37    1
    29    38    44   am
    30    37    36    1
    31    98    95    1
    32    98   100    1
    33    20    19    1
    34    20    21    1
    35    91    92    1
    36    95    96    1
    37    44    45    1
    38    82    83    2
    39    82    81    1
    40    45    48    1
    41    45    46    1
    42    22    21    2
    43    21    27   am
    44    47    46    2
    45    46    52   am
    46    84    81    1
    47    84    85    1
    48    81    80    1
    49    96   101   am
    50    96    97    2
    51    27    28    1
    52    85    86    1
    53   101   102    1
    54    52    53    1
    55    80    86    1
    56    28    29    1
    57    28    31    1
    58    54    55    2
    59    54    53    1
    60    29    30    2
    61     4     3    2
    62    53    56    1
    63   102   105    1
    64   102   103    1
    65    12    13    2
    66    12    11    1
    67     1     2    1
    68   105   106    1
    69     2     3    1
    70     2     5    1
    71     3    10   am
    72   106   107    1
    73   104   103    2
    74    32    31    1
    75    32    33    1
    76   103   112   am
    77    10    11    1
    78    11    14    1
    79     6     5    1
    80     6     7    1
    81    33    34    1
    82   112   113    1
    83   107   108    1
    84    68    67    2
    85    66    65    1
    86    66    67    1
    87    66    69    1
    88   110   109    1
    89    67    72   am
    90    14    15    1
    91   129   128    1
    92    71    69    1
    93   113   114    1
    94     8     7    1
    95     8     9    1
    96   136   135    1
    97    34    35    1
    98   108   109    2
    99    74    75    2
   100    74    73    1
   101    18    16   ar
   102    69    70    1
   103   109   111    1
   104    72    73    1
   105    16    15    1
   106    16    17   ar
   107   137   135    1
   108    73    76    1
   109   114   115    2
   110   114   116   am
   111   135   134    1
   112   128   125    1
   113   116   117    1
   114   134   131    1
   115    76    77    1
   116   119   118    2
   117   125   124    1
   118   125   126    1
   119   118   124   am
   120   118   117    1
   121   117   120    1
   122    78    77    2
   123    77    79   am
   124   131   132    1
   125   131   130    1
   126   127   126    2
   127   133   132    2
   128   120   121    1
   129   121   122   ar
   130   121   123   ar
