@<TRIPOS>MOLECULE
tmp/2vjtB00.pdb
 198 189 0 0 0
SMALL
GASTEIGER

@<TRIPOS>ATOM
      1  N        -14.7770   31.2060   10.0000 N.3    60  LEU60      -0.1245
      2  CA       -15.4180   29.8830   10.1820 C.3    60  LEU60       0.1561
      3  C        -16.9320   29.9180   10.4570 C.2    60  LEU60       0.2260
      4  O        -17.7180   29.4450    9.6190 O.2    60  LEU60      -0.2867
      5  CB       -14.7010   29.0690   11.2710 C.3    60  LEU60       0.0270
      6  CG       -13.2000   28.8000   11.0740 C.3    60  LEU60       0.0019
      7  CD1      -12.6240   27.8800   12.1760 C.3    60  LEU60       0.0001
      8  CD2      -12.9170   28.2320    9.6910 C.3    60  LEU60       0.0001
      9  N        -20.6890   25.8460    7.5510 N.3    65  LEU65      -0.1245
     10  CA       -19.8020   24.9910    8.3440 C.3    65  LEU65       0.1561
     11  C        -20.3800   24.6550    9.7120 C.2    65  LEU65       0.2260
     12  O        -20.2590   23.5220   10.1670 O.2    65  LEU65      -0.2867
     13  CB       -18.4330   25.6370    8.5210 C.3    65  LEU65       0.0270
     14  CG       -17.4150   25.3130    7.4340 C.3    65  LEU65       0.0019
     15  CD1      -16.0910   26.0160    7.7470 C.3    65  LEU65       0.0001
     16  CD2      -17.2070   23.8070    7.3070 C.3    65  LEU65       0.0001
     17  N        -18.3150   21.5250   11.4020 N.3    71  MET71      -0.1245
     18  CA       -18.2110   22.0360   12.7600 C.3    71  MET71       0.1570
     19  C        -19.5940   22.2120   13.3940 C.2    71  MET71       0.2261
     20  O        -19.7740   22.9360   14.3640 O.2    71  MET71      -0.2867
     21  CB       -17.2250   23.2310   12.8310 C.3    71  MET71       0.0387
     22  CG       -17.7180   24.6700   12.9810 C.3    71  MET71       0.0595
     23  SD       -16.2800   25.8340   12.8920 S.3    71  MET71      -0.1393
     24  CE       -15.7420   25.3590   11.2350 C.3    71  MET71       0.0692
     25  N        -19.5920   18.9830   20.0490 N.3    75  ARG75      -0.1231
     26  CA       -18.4530   18.0830   19.9810 C.3    75  ARG75       0.1694
     27  C        -17.4160   18.5410   18.9520 C.2    75  ARG75       0.2591
     28  O        -16.2290   18.6890   19.2710 O.2    75  ARG75      -0.2718
     29  CB       -18.9300   16.6650   19.6390 C.3    75  ARG75       0.0321
     30  CG       -17.8160   15.6460   19.6730 C.3    75  ARG75       0.0489
     31  CD       -18.3270   14.2360   19.5190 C.3    75  ARG75       0.2205
     32  NE       -18.6630   13.8870   18.1310 N.pl3  75  ARG75      -0.0865
     33  CZ       -17.7870   13.5760   17.1680 C.cat  75  ARG75       0.5346
     34  NH1      -16.4710   13.6010   17.3940 N.pl3  75  ARG75       0.1354
     35  NH2      -18.2420   13.2550   15.9530 N.pl3  75  ARG75       0.1354
     36  N        -17.8760   18.7610   17.7260 N.am   76  ARG76      -0.1980
     37  CA       -16.9910   19.0860   16.6110 C.3    76  ARG76       0.1597
     38  C        -16.5500   20.5340   16.6120 C.2    76  ARG76       0.2287
     39  O        -15.4690   20.8430   16.1280 O.2    76  ARG76      -0.2864
     40  CB       -17.6930   18.8190   15.2930 C.3    76  ARG76       0.0334
     41  CG       -17.6010   17.4130   14.8140 C.3    76  ARG76       0.0492
     42  CD       -18.5960   17.2540   13.7140 C.3    76  ARG76       0.2205
     43  NE       -18.3640   16.0540   12.9350 N.pl3  76  ARG76      -0.0865
     44  CZ       -19.2920   15.4430   12.2070 C.cat  76  ARG76       0.5346
     45  NH1      -20.5330   15.9240   12.1440 N.pl3  76  ARG76       0.1354
     46  NH2      -18.9690   14.3340   11.5450 N.pl3  76  ARG76       0.1354
     47  N        -13.7690   20.4670   18.9350 N.3    79  ALA79      -0.1231
     48  CA       -12.5930   19.8270   18.3420 C.3    79  ALA79       0.1694
     49  C        -11.8780   20.8060   17.4150 C.2    79  ALA79       0.2592
     50  O        -10.6420   20.8340   17.3420 O.2    79  ALA79      -0.2718
     51  CB       -12.9810   18.5620   17.5880 C.3    79  ALA79       0.0304
     52  N        -12.6620   21.6130   16.7120 N.am   80  CYS80      -0.1970
     53  CA       -12.1110   22.5500   15.7410 C.3    80  CYS80       0.1712
     54  C        -11.3510   23.6880   16.3940 C.2    80  CYS80       0.2296
     55  O        -10.2720   24.0460   15.9340 O.2    80  CYS80      -0.2864
     56  CB       -13.2100   23.1350   14.8630 C.3    80  CYS80       0.0983
     57  SG       -12.5710   24.3520   13.6740 S.3    80  CYS80      -0.0798
     58  N        -10.2030   23.5660   19.3780 N.3    82  ARG82      -0.1231
     59  CA        -9.0900   22.8690   20.0090 C.3    82  ARG82       0.1694
     60  C         -7.9280   22.8090   19.0320 C.2    82  ARG82       0.2592
     61  O         -6.8030   23.0900   19.4030 O.2    82  ARG82      -0.2718
     62  CB        -9.4700   21.4450   20.4310 C.3    82  ARG82       0.0321
     63  CG        -8.2660   20.5410   20.7310 C.3    82  ARG82       0.0489
     64  CD        -8.6840   19.1240   21.0340 C.3    82  ARG82       0.2205
     65  NE        -9.3830   18.4570   19.9140 N.pl3  82  ARG82      -0.0865
     66  CZ        -8.7910   17.8240   18.8960 C.cat  82  ARG82       0.5346
     67  NH1       -7.4690   17.7700   18.8140 N.pl3  82  ARG82       0.1354
     68  NH2       -9.5230   17.2380   17.9510 N.pl3  82  ARG82       0.1354
     69  N         -8.2090   22.4170   17.7980 N.am   83  ASP83      -0.1960
     70  CA        -7.1810   22.3400   16.7750 C.3    83  ASP83       0.1840
     71  C         -6.5500   23.7300   16.6360 C.2    83  ASP83       0.2621
     72  O         -5.3240   23.8810   16.7240 O.2    83  ASP83      -0.2715
     73  CB        -7.7630   21.8730   15.4220 C.3    83  ASP83       0.1450
     74  CG        -7.8260   20.3440   15.2720 C.2    83  ASP83       0.3671
     75  OD1       -7.7360   19.6080   16.2780 O.co2  83  ASP83      -0.2456
     76  OD2       -7.9830   19.8720   14.1210 O.co2  83  ASP83      -0.2456
     77  N         -7.4010   24.7440   16.4500 N.am   84  MET84      -0.1977
     78  CA        -6.9490   26.1250   16.2910 C.3    84  MET84       0.1605
     79  C         -5.9380   26.4670   17.3600 C.2    84  MET84       0.2287
     80  O         -4.8860   27.0150   17.0520 O.2    84  MET84      -0.2864
     81  CB        -8.1130   27.1090   16.3610 C.3    84  MET84       0.0413
     82  CG        -9.1140   27.0110   15.2190 C.3    84  MET84       0.0598
     83  SD        -8.6980   27.9860   13.7540 S.3    84  MET84      -0.1393
     84  CE        -9.0170   29.6830   14.2650 C.3    84  MET84       0.0692
     85  N         -3.9380   24.4550   18.9650 N.3    86  TYR86      -0.1227
     86  CA        -2.6860   23.7680   18.6150 C.3    86  TYR86       0.1736
     87  C         -1.8730   24.5920   17.6450 C.2    86  TYR86       0.2595
     88  O         -0.6960   24.8740   17.9050 O.2    86  TYR86      -0.2718
     89  CB        -2.9070   22.4170   17.9290 C.3    86  TYR86       0.0548
     90  CG        -3.4240   21.2930   18.7660 C.ar   86  TYR86      -0.0200
     91  CD1       -3.1360   21.1910   20.1390 C.ar   86  TYR86      -0.0009
     92  CD2       -4.1730   20.2880   18.1800 C.ar   86  TYR86      -0.0009
     93  CE1       -3.6180   20.1190   20.8940 C.ar   86  TYR86       0.0417
     94  CE2       -4.6500   19.2260   18.9220 C.ar   86  TYR86       0.0417
     95  CZ        -4.3680   19.1460   20.2780 C.ar   86  TYR86       0.1957
     96  OH        -4.8400   18.0850   21.0050 O.3    86  TYR86      -0.2866
     97  N         -2.4970   24.9540   16.5210 N.am   87  PHE87      -0.1976
     98  CA        -1.8160   25.7200   15.4910 C.3    87  PHE87       0.1639
     99  C         -1.1880   26.9700   16.0870 C.2    87  PHE87       0.2290
    100  O          0.0080   27.1940   15.9490 O.2    87  PHE87      -0.2864
    101  CB        -2.7730   26.1160   14.3640 C.3    87  PHE87       0.0560
    102  CG        -3.3250   24.9530   13.6030 C.ar   87  PHE87      -0.0200
    103  CD1       -4.6950   24.8330   13.3910 C.ar   87  PHE87      -0.0042
    104  CD2       -2.4820   23.9600   13.0990 C.ar   87  PHE87      -0.0042
    105  CE1       -5.2230   23.7370   12.6810 C.ar   87  PHE87      -0.0003
    106  CE2       -2.9990   22.8590   12.3990 C.ar   87  PHE87      -0.0003
    107  CZ        -4.3690   22.7510   12.1840 C.ar   87  PHE87      -0.0000
    108  N          1.7920   26.0460   18.5020 N.3    90  TYR90      -0.1241
    109  CA         2.9730   25.5190   17.8360 C.3    90  TYR90       0.1605
    110  C          3.6380   26.5620   16.9610 C.2    90  TYR90       0.2264
    111  O          4.8800   26.6180   16.9150 O.2    90  TYR90      -0.2867
    112  CB         2.6460   24.2740   16.9950 C.3    90  TYR90       0.0534
    113  CG         2.5830   23.0000   17.8110 C.ar   90  TYR90      -0.0201
    114  CD1        1.3830   22.5550   18.3470 C.ar   90  TYR90      -0.0009
    115  CD2        3.7280   22.2440   18.0460 C.ar   90  TYR90      -0.0009
    116  CE1        1.3210   21.3970   19.0920 C.ar   90  TYR90       0.0417
    117  CE2        3.6780   21.0760   18.8040 C.ar   90  TYR90       0.0417
    118  CZ         2.4710   20.6660   19.3210 C.ar   90  TYR90       0.1957
    119  OH         2.3960   19.5160   20.0660 O.3    90  TYR90      -0.2866
    120  N          5.6050   17.5000   14.5650 N.3   106  ARG106     -0.1231
    121  CA         4.5360   17.3320   15.5480 C.3   106  ARG106      0.1694
    122  C          3.1600   17.8350   15.1350 C.2   106  ARG106      0.2591
    123  O          2.2050   17.6410   15.8900 O.2   106  ARG106     -0.2718
    124  CB         4.9590   17.9520   16.8760 C.3   106  ARG106      0.0321
    125  CG         6.0320   17.1200   17.5750 C.3   106  ARG106      0.0489
    126  CD         6.3930   17.6760   18.9290 C.3   106  ARG106      0.2205
    127  NE         7.7110   17.2050   19.3840 N.pl3 106  ARG106     -0.0865
    128  CZ         8.4410   17.7700   20.3570 C.cat 106  ARG106      0.5346
    129  NH1        8.0020   18.8530   21.0000 N.pl3 106  ARG106      0.1354
    130  NH2        9.6290   17.2590   20.6910 N.pl3 106  ARG106      0.1354
    131  N          3.0430   18.4230   13.9420 N.am  107  VAL107     -0.1980
    132  CA         1.7680   18.9610   13.4730 C.3   107  VAL107      0.1595
    133  C          1.3910   18.4920   12.0650 C.2   107  VAL107      0.2287
    134  O          0.3250   17.9250   11.8890 O.2   107  VAL107     -0.2864
    135  CB         1.7260   20.5230   13.5310 C.3   107  VAL107      0.0276
    136  CG1        0.3630   21.0340   13.1050 C.3   107  VAL107      0.0022
    137  CG2        2.0200   21.0200   14.9190 C.3   107  VAL107      0.0022
    138  N         -1.2620   14.7670    8.7080 N.3   111  LEU111     -0.1245
    139  CA        -2.4550   15.5380    9.0420 C.3   111  LEU111      0.1561
    140  C         -3.3940   15.7400    7.8540 C.2   111  LEU111      0.2260
    141  O         -4.6140   15.7110    8.0110 O.2   111  LEU111     -0.2867
    142  CB        -2.0550   16.8880    9.6260 C.3   111  LEU111      0.0270
    143  CG        -3.1650   17.7360   10.2460 C.3   111  LEU111      0.0019
    144  CD1       -3.8970   16.9970   11.3420 C.3   111  LEU111      0.0001
    145  CD2       -2.5580   18.9930   10.7770 C.3   111  LEU111      0.0001
    146  N         -5.2780   12.4930    7.5630 N.3   114  THR114     -0.1203
    147  CA        -6.1650   12.4380    8.7320 C.3   114  THR114      0.1994
    148  C         -7.4380   13.2490    8.4880 C.2   114  THR114      0.2617
    149  O         -8.5510   12.8090    8.7950 O.2   114  THR114     -0.2717
    150  CB        -5.4610   13.0020    9.9900 C.3   114  THR114      0.1784
    151  OG1       -4.2920   12.2260   10.2860 O.3   114  THR114     -0.2211
    152  CG2       -6.4020   13.0240   11.2030 C.3   114  THR114      0.0376
    153  N         -7.2650   14.4360    7.9240 N.am  115  TYR115     -0.1975
    154  CA        -8.3920   15.3070    7.5950 C.3   115  TYR115      0.1639
    155  C         -9.2230   14.7620    6.4200 C.2   115  TYR115      0.2290
    156  O        -10.4470   14.8220    6.4510 O.2   115  TYR115     -0.2864
    157  CB        -7.8720   16.7270    7.3140 C.3   115  TYR115      0.0560
    158  CG        -7.5990   17.5900    8.5450 C.ar  115  TYR115     -0.0198
    159  CD1       -7.7510   17.1000    9.8430 C.ar  115  TYR115     -0.0009
    160  CD2       -7.1710   18.9110    8.4000 C.ar  115  TYR115     -0.0009
    161  CE1       -7.5000   17.9070   10.9530 C.ar  115  TYR115      0.0417
    162  CE2       -6.9200   19.7230    9.5040 C.ar  115  TYR115      0.0417
    163  CZ        -7.0840   19.2150   10.7760 C.ar  115  TYR115      0.1957
    164  OH        -6.8400   20.0130   11.8730 O.3   115  TYR115     -0.2866
    165  N        -11.3940   11.8710    7.9360 N.3   118  LEU118     -0.1245
    166  CA       -12.5030   12.2790    8.7960 C.3   118  LEU118      0.1561
    167  C        -13.5090   13.1270    8.0300 C.2   118  LEU118      0.2260
    168  O        -14.6540   13.2870    8.4670 O.2   118  LEU118     -0.2867
    169  CB       -11.9820   13.0760    9.9960 C.3   118  LEU118      0.0270
    170  CG       -11.2210   12.2930   11.0700 C.3   118  LEU118      0.0019
    171  CD1      -10.3640   13.2430   11.9240 C.3   118  LEU118      0.0001
    172  CD2      -12.1880   11.4920   11.9400 C.3   118  LEU118      0.0001
    173  N        -12.6180   16.3520    7.2500 N.3   120  VAL120     -0.1231
    174  CA       -12.3720   17.7160    7.7100 C.3   120  VAL120      0.1678
    175  C        -11.9700   18.6100    6.5310 C.2   120  VAL120      0.2434
    176  O        -11.0180   18.2910    5.8110 O.2   120  VAL120     -0.2733
    177  CB       -11.2970   17.7640    8.8230 C.3   120  VAL120      0.0265
    178  CG1      -10.8450   19.2020    9.0950 C.3   120  VAL120      0.0020
    179  CG2      -11.8300   17.1310   10.0890 C.3   120  VAL120      0.0020
    180  N        -12.7150   19.7180    6.3140 N.am  121  PRO121     -0.2729
    181  CA       -12.4660   20.5880    5.1620 C.3   121  PRO121      0.1401
    182  C        -11.1400   21.3470    5.2630 C.2   121  PRO121      0.2269
    183  O        -10.9710   22.2040    6.1410 O.2   121  PRO121     -0.2865
    184  CB       -13.6590   21.5450    5.1680 C.3   121  PRO121      0.0296
    185  CG       -14.1790   21.5140    6.5470 C.3   121  PRO121      0.0237
    186  CD       -13.8500   20.1900    7.1290 C.3   121  PRO121      0.0939
    187  N        -11.0750   25.3630    4.3710 N.3   124  ALA124     -0.1231
    188  CA       -11.6880   26.0880    5.4810 C.3   124  ALA124      0.1694
    189  C        -10.7420   26.2060    6.6840 C.2   124  ALA124      0.2592
    190  O        -10.7870   27.1990    7.4290 O.2   124  ALA124     -0.2718
    191  CB       -12.9830   25.3940    5.8920 C.3   124  ALA124      0.0304
    192  N         -9.9060   25.1860    6.8770 N.am  125  THR125     -0.1953
    193  CA        -8.9390   25.1610    7.9710 C.3   125  THR125      0.1897
    194  C         -7.7850   26.1330    7.7010 C.2   125  THR125      0.2313
    195  O         -7.2910   26.7820    8.6220 O.2   125  THR125     -0.2863
    196  CB        -8.3820   23.7290    8.1860 C.3   125  THR125      0.1794
    197  OG1       -9.4760   22.8230    8.3850 O.3   125  THR125     -0.2208
    198  CG2       -7.4280   23.6750    9.3930 C.3   125  THR125      0.0378
@<TRIPOS>BOND
     1   187   188    1
     2   181   184    1
     3   181   182    1
     4   181   180    1
     5   184   185    1
     6   182   183    2
     7   188   191    1
     8   188   189    1
     9   176   175    2
    10   180   175   am
    11   180   186    1
    12   155   156    2
    13   155   154    1
    14   175   174    1
    15   185   186    1
    16   189   192   am
    17   189   190    2
    18   192   193    1
    19   173   174    1
    20    16    14    1
    21   157   154    1
    22   157   158    1
    23    14    15    1
    24    14    13    1
    25     9    10    1
    26   146   147    1
    27   154   153    1
    28   194   193    1
    29   194   195    2
    30   174   177    1
    31   140   141    2
    32   140   139    1
    33   153   148   am
    34   165   166    1
    35   193   196    1
    36   167   168    2
    37   167   166    1
    38   196   197    1
    39   196   198    1
    40    10    13    1
    41    10    11    1
    42   160   158   ar
    43   160   162   ar
    44   148   147    1
    45   148   149    2
    46   158   159   ar
    47   138   139    1
    48   147   150    1
    49   166   169    1
    50   177   178    1
    51   177   179    1
    52   139   142    1
    53   162   163   ar
    54     4     3    2
    55   142   143    1
    56     8     6    1
    57    11    12    2
    58   159   161   ar
    59   150   151    1
    60   150   152    1
    61   169   170    1
    62     1     2    1
    63     2     3    1
    64     2     5    1
    65   143   145    1
    66   143   144    1
    67   163   161   ar
    68   163   164    1
    69   170   171    1
    70   170   172    1
    71     6     5    1
    72     6     7    1
    73    24    23    1
    74    17    18    1
    75    46    44    1
    76   134   133    2
    77   133   132    1
    78    45    44    1
    79   107   106   ar
    80   107   105   ar
    81    44    43    2
    82   106   104   ar
    83   105   103   ar
    84    18    21    1
    85    18    19    1
    86    21    22    1
    87    23    22    1
    88    43    42    1
    89   104   102   ar
    90   136   135    1
    91   103   102   ar
    92    19    20    2
    93   132   135    1
    94   132   131    1
    95   135   137    1
    96   102   101    1
    97    57    56    1
    98    42    41    1
    99    83    84    1
   100    83    82    1
   101   131   122   am
   102    76    74   ar
   103   101    98    1
   104   120   121    1
   105    41    40    1
   106    56    53    1
   107   122   121    1
   108   122   123    2
   109    82    81    1
   110    74    73    1
   111    74    75   ar
   112    40    37    1
   113    73    70    1
   114    98    99    1
   115    98    97    1
   116   121   124    1
   117    53    54    1
   118    53    52    1
   119    55    54    2
   120   100    99    2
   121    35    33    1
   122    39    38    2
   123    78    81    1
   124    78    77    1
   125    78    79    1
   126    77    71   am
   127    97    87   am
   128    37    38    1
   129    37    36    1
   130    71    72    2
   131    71    70    1
   132    52    49   am
   133    70    69    1
   134   124   125    1
   135   111   110    2
   136   110   109    1
   137   112   113    1
   138   112   109    1
   139    80    79    2
   140    33    34    1
   141    33    32    2
   142    50    49    2
   143    49    48    1
   144   125   126    1
   145    51    48    1
   146    87    88    2
   147    87    86    1
   148    36    27   am
   149    69    60   am
   150   113   115   ar
   151   113   114   ar
   152   109   108    1
   153    89    86    1
   154    89    90    1
   155    68    66    1
   156   115   117   ar
   157    32    31    1
   158    92    90   ar
   159    92    94   ar
   160    48    47    1
   161   114   116   ar
   162    86    85    1
   163    90    91   ar
   164   117   118   ar
   165    67    66    1
   166    66    65    2
   167    94    95   ar
   168   126   127    1
   169    27    28    2
   170    27    26    1
   171    60    61    2
   172    60    59    1
   173   116   118   ar
   174   118   119    1
   175    58    59    1
   176   127   128    2
   177    31    30    1
   178    29    30    1
   179    29    26    1
   180    65    64    1
   181    26    25    1
   182    59    62    1
   183    91    93   ar
   184    95    93   ar
   185    95    96    1
   186   128   130    1
   187   128   129    1
   188    62    63    1
   189    63    64    1
