@<TRIPOS>MOLECULE
tmp/2vjxB00.pdb
 144 147 0 0 0
SMALL
GASTEIGER

@<TRIPOS>ATOM
      1  N        -26.6520   62.0650   44.1080 N.3   151  ASN151     -0.1240
      2  CA       -25.6100   62.1080   43.0760 C.3   151  ASN151      0.1653
      3  C        -26.1780   62.2070   41.6530 C.2   151  ASN151      0.2266
      4  O        -25.4250   62.4140   40.7100 O.2   151  ASN151     -0.2867
      5  CB       -24.6610   60.9090   43.1870 C.3   151  ASN151      0.1155
      6  CG       -23.7120   61.0280   44.3630 C.2   151  ASN151      0.2627
      7  OD1      -22.8720   61.9470   44.4100 O.2   151  ASN151     -0.2716
      8  ND2      -23.8550   60.1140   45.3370 N.am  151  ASN151     -0.0877
      9  N        -21.9450   62.5830   39.5960 N.3   171  TRP171     -0.1227
     10  CA       -21.5420   61.9930   40.8800 C.3   171  TRP171      0.1737
     11  C        -20.7110   63.0710   41.5810 C.2   171  TRP171      0.2595
     12  O        -20.4620   64.1160   41.0000 O.2   171  TRP171     -0.2718
     13  CB       -20.7240   60.6800   40.6950 C.3   171  TRP171      0.0564
     14  CG       -20.9770   59.7340   41.8380 C.ar  171  TRP171      0.0003
     15  CD1      -20.2160   59.5870   42.9650 C.ar  171  TRP171      0.0946
     16  CD2      -22.0930   58.8340   41.9860 C.ar  171  TRP171      0.0152
     17  NE1      -20.7860   58.6720   43.8110 N.ar  171  TRP171     -0.2442
     18  CE2      -21.9400   58.1910   43.2470 C.ar  171  TRP171      0.0810
     19  CE3      -23.2190   58.5180   41.1840 C.ar  171  TRP171      0.0012
     20  CZ2      -22.8430   57.2370   43.7180 C.ar  171  TRP171      0.0191
     21  CZ3      -24.1350   57.5840   41.6560 C.ar  171  TRP171      0.0001
     22  CH2      -23.9360   56.9370   42.9230 C.ar  171  TRP171      0.0015
     23  N        -20.2630   62.8160   42.8130 N.am  172  ASP172     -0.1960
     24  CA       -19.5270   63.8480   43.5650 C.3   172  ASP172      0.1840
     25  C        -18.0440   63.9770   43.1490 C.2   172  ASP172      0.2622
     26  O        -17.2830   64.7650   43.7310 O.2   172  ASP172     -0.2715
     27  CB       -19.7450   63.7200   45.0900 C.3   172  ASP172      0.1450
     28  CG       -19.2250   62.3880   45.6670 C.2   172  ASP172      0.3671
     29  OD1      -18.4440   61.6530   44.9880 O.co2 172  ASP172     -0.2456
     30  OD2      -19.6080   62.0620   46.8140 O.co2 172  ASP172     -0.2456
     31  N        -17.6520   63.2370   42.1070 N.am  173  TRP173     -0.1974
     32  CA       -16.3910   63.4420   41.3930 C.3   173  TRP173      0.1640
     33  C        -16.6300   63.4380   39.8870 C.2   173  TRP173      0.2290
     34  O        -15.6760   63.3540   39.1210 O.2   173  TRP173     -0.2864
     35  CB       -15.3380   62.3460   41.7330 C.3   173  TRP173      0.0576
     36  CG       -15.9610   61.0000   41.9110 C.ar  173  TRP173      0.0006
     37  CD1      -16.1710   60.3460   43.0910 C.ar  173  TRP173      0.0946
     38  CD2      -16.5430   60.2000   40.8850 C.ar  173  TRP173      0.0152
     39  NE1      -16.8450   59.1630   42.8630 N.ar  173  TRP173     -0.2442
     40  CE2      -17.0790   59.0480   41.5110 C.ar  173  TRP173      0.0810
     41  CE3      -16.5920   60.3120   39.4770 C.ar  173  TRP173      0.0012
     42  CZ2      -17.7030   58.0160   40.7930 C.ar  173  TRP173      0.0191
     43  CZ3      -17.2420   59.2990   38.7520 C.ar  173  TRP173      0.0001
     44  CH2      -17.7930   58.1690   39.4160 C.ar  173  TRP173      0.0015
     45  N        -16.7260   49.3100   41.8560 N.3   368  TRP368     -0.1241
     46  CA       -17.7480   49.9380   42.6920 C.3   368  TRP368      0.1605
     47  C        -19.0600   50.1110   41.9070 C.2   368  TRP368      0.2264
     48  O        -19.0510   50.3500   40.7040 O.2   368  TRP368     -0.2867
     49  CB       -17.1620   51.2420   43.2100 C.3   368  TRP368      0.0550
     50  CG       -18.1190   52.3280   43.6240 C.ar  368  TRP368      0.0003
     51  CD1      -18.5470   52.5970   44.9210 C.ar  368  TRP368      0.0946
     52  CD2      -18.6210   53.3780   42.7970 C.ar  368  TRP368      0.0152
     53  NE1      -19.3260   53.7510   44.9140 N.ar  368  TRP368     -0.2442
     54  CE2      -19.3970   54.2370   43.6270 C.ar  368  TRP368      0.0810
     55  CE3      -18.5420   53.6530   41.4210 C.ar  368  TRP368      0.0012
     56  CZ2      -20.0750   55.3400   43.1290 C.ar  368  TRP368      0.0191
     57  CZ3      -19.2080   54.8090   40.9220 C.ar  368  TRP368      0.0001
     58  CH2      -19.9820   55.6150   41.7810 C.ar  368  TRP368      0.0015
     59  N        -25.9000   54.0110   46.5800 N.3   397  CYS397     -0.1235
     60  CA       -26.1270   55.2110   47.4080 C.3   397  CYS397      0.1677
     61  C        -27.5650   55.7590   47.4540 C.2   397  CYS397      0.2270
     62  O        -27.7730   56.9050   47.9200 O.2   397  CYS397     -0.2867
     63  CB       -25.2320   56.3630   46.9740 C.3   397  CYS397      0.0956
     64  SG       -23.4510   56.0530   47.1910 S.3   397  CYS397     -0.0801
     65  N        -23.4040   49.4600   46.8300 N.3   434  ASN434     -0.1225
     66  CA       -22.6230   50.4080   47.6160 C.3   434  ASN434      0.1785
     67  C        -23.5140   51.2840   48.4990 C.2   434  ASN434      0.2597
     68  O        -24.3030   52.0830   47.9800 O.2   434  ASN434     -0.2718
     69  CB       -21.7950   51.3090   46.7000 C.3   434  ASN434      0.1169
     70  CG       -20.9130   52.2800   47.5030 C.2   434  ASN434      0.2627
     71  OD1      -19.8990   51.8590   48.0710 O.2   434  ASN434     -0.2716
     72  ND2      -21.3070   53.5530   47.5650 N.am  434  ASN434     -0.0877
     73  N        -23.3180   51.1500   49.8200 N.am  435  GLU435     -0.1979
     74  CA       -23.8300   52.0930   50.8620 C.3   435  GLU435      0.1602
     75  C        -25.3420   52.2360   50.9470 C.2   435  GLU435      0.2287
     76  O        -25.8200   53.1440   51.6160 O.2   435  GLU435     -0.2864
     77  CB       -23.1770   53.4820   50.6880 C.3   435  GLU435      0.0415
     78  CG       -21.6470   53.4240   50.9160 C.3   435  GLU435      0.1163
     79  CD       -20.9180   54.7500   50.7200 C.2   435  GLU435      0.3649
     80  OE1      -21.5020   55.6680   50.0790 O.co2 435  GLU435     -0.2457
     81  OE2      -19.7280   54.8580   51.1520 O.co2 435  GLU435     -0.2457
     82  N        -15.2890   57.0520   56.7630 N.3   506  TRP506     -0.1241
     83  CA       -15.3170   58.4330   56.3140 C.3   506  TRP506      0.1605
     84  C        -15.2330   59.4620   57.4700 C.2   506  TRP506      0.2264
     85  O        -15.5630   60.6260   57.3000 O.2   506  TRP506     -0.2867
     86  CB       -16.5530   58.6530   55.4280 C.3   506  TRP506      0.0550
     87  CG       -16.2810   58.0230   54.0660 C.ar  506  TRP506      0.0003
     88  CD1      -16.8890   56.8960   53.5460 C.ar  506  TRP506      0.0946
     89  CD2      -15.3450   58.4740   53.0780 C.ar  506  TRP506      0.0152
     90  NE1      -16.3660   56.6040   52.2750 N.ar  506  TRP506     -0.2442
     91  CE2      -15.4250   57.5570   51.9640 C.ar  506  TRP506      0.0810
     92  CE3      -14.4230   59.5460   53.0130 C.ar  506  TRP506      0.0012
     93  CZ2      -14.6440   57.7020   50.8060 C.ar  506  TRP506      0.0191
     94  CZ3      -13.6340   59.6870   51.8400 C.ar  506  TRP506      0.0001
     95  CH2      -13.7670   58.7590   50.7490 C.ar  506  TRP506      0.0015
     96  N        -15.1040   63.3720   55.6440 N.3   510  TYR510     -0.1241
     97  CA       -16.4490   63.8010   56.0530 C.3   510  TYR510      0.1605
     98  C        -16.6000   64.1180   57.5430 C.2   510  TYR510      0.2264
     99  O        -17.3440   65.0480   57.8930 O.2   510  TYR510     -0.2867
    100  CB       -17.5480   62.8120   55.6080 C.3   510  TYR510      0.0534
    101  CG       -17.7000   62.8560   54.0910 C.ar  510  TYR510     -0.0201
    102  CD1      -18.0330   64.0630   53.4620 C.ar  510  TYR510     -0.0009
    103  CD2      -17.4660   61.7280   53.2950 C.ar  510  TYR510     -0.0009
    104  CE1      -18.1380   64.1570   52.0760 C.ar  510  TYR510      0.0417
    105  CE2      -17.5850   61.8070   51.8800 C.ar  510  TYR510      0.0417
    106  CZ       -17.9320   63.0140   51.2870 C.ar  510  TYR510      0.1957
    107  OH       -18.0280   63.1470   49.9170 O.3   510  TYR510     -0.2866
    108  N        -13.4500   51.1600   52.1510 N.3   528  GLU528     -0.1245
    109  CA       -13.2740   52.5360   51.6480 C.3   528  GLU528      0.1567
    110  C        -12.6930   53.4520   52.7180 C.2   528  GLU528      0.2260
    111  O        -13.1580   53.4120   53.8200 O.2   528  GLU528     -0.2867
    112  CB       -14.6130   53.2300   51.2800 C.3   528  GLU528      0.0388
    113  CG       -15.4310   52.5870   50.1480 C.3   528  GLU528      0.1160
    114  CD       -16.5100   53.5280   49.5780 C.2   528  GLU528      0.3649
    115  OE1      -16.6660   54.6810   50.0850 O.co2 528  GLU528     -0.2457
    116  OE2      -17.2150   53.1010   48.6220 O.co2 528  GLU528     -0.2457
    117  N        -10.4740   54.7510   48.7550 N.3   618  TRP618     -0.1241
    118  CA       -11.3260   55.5060   47.8130 C.3   618  TRP618      0.1605
    119  C        -10.4910   56.7190   47.3110 C.2   618  TRP618      0.2264
    120  O        -10.1180   57.5670   48.1470 O.2   618  TRP618     -0.2867
    121  CB       -12.6040   56.0300   48.5350 C.3   618  TRP618      0.0550
    122  CG       -13.4270   56.6320   47.4900 C.ar  618  TRP618      0.0003
    123  CD1      -13.4010   57.9210   47.0420 C.ar  618  TRP618      0.0946
    124  CD2      -14.2800   55.9050   46.6100 C.ar  618  TRP618      0.0152
    125  NE1      -14.2350   58.0530   45.9720 N.ar  618  TRP618     -0.2442
    126  CE2      -14.7840   56.8270   45.6720 C.ar  618  TRP618      0.0810
    127  CE3      -14.6950   54.5620   46.5560 C.ar  618  TRP618      0.0012
    128  CZ2      -15.6590   56.4490   44.6270 C.ar  618  TRP618      0.0191
    129  CZ3      -15.6100   54.1800   45.5530 C.ar  618  TRP618      0.0001
    130  CH2      -16.0580   55.1420   44.5710 C.ar  618  TRP618      0.0015
    131  N        -10.7970   62.1340   44.9750 N.3   629  TRP629     -0.1241
    132  CA       -10.0820   61.2830   45.9330 C.3   629  TRP629      0.1605
    133  C         -9.0720   60.3460   45.2380 C.2   629  TRP629      0.2264
    134  O         -8.4240   59.4950   45.8840 O.2   629  TRP629     -0.2867
    135  CB       -11.0920   60.4760   46.7350 C.3   629  TRP629      0.0550
    136  CG       -12.0780   61.3380   47.5240 C.ar  629  TRP629      0.0003
    137  CD1      -12.0040   61.6410   48.8970 C.ar  629  TRP629      0.0946
    138  CD2      -13.2580   61.9900   47.0350 C.ar  629  TRP629      0.0152
    139  NE1      -13.0680   62.4480   49.2460 N.ar  629  TRP629     -0.2442
    140  CE2      -13.8510   62.6680   48.1360 C.ar  629  TRP629      0.0810
    141  CE3      -13.8940   62.0520   45.7730 C.ar  629  TRP629      0.0012
    142  CZ2      -15.0560   63.4100   48.0090 C.ar  629  TRP629      0.0191
    143  CZ3      -15.0710   62.8070   45.6390 C.ar  629  TRP629      0.0001
    144  CH2      -15.6310   63.4820   46.7470 C.ar  629  TRP629      0.0015
@<TRIPOS>BOND
     1    43    44   ar
     2    43    41   ar
     3    34    33    2
     4    44    42   ar
     5    41    38   ar
     6     9    10    1
     7    33    32    1
     8    13    10    1
     9    13    14    1
    10    48    47    2
    11     4     3    2
    12    42    40   ar
    13    10    11    1
    14    38    40   ar
    15    38    36   ar
    16    57    55   ar
    17    57    58   ar
    18    12    11    2
    19    19    21   ar
    20    19    16   ar
    21    32    35    1
    22    32    31    1
    23    55    52   ar
    24    40    39   ar
    25    11    23   am
    26     3     2    1
    27    21    22   ar
    28    35    36    1
    29    58    56   ar
    30    14    16   ar
    31    14    15   ar
    32    45    46    1
    33    47    46    1
    34    36    37   ar
    35    16    18   ar
    36    31    25   am
    37    46    49    1
    38    52    50   ar
    39    52    54   ar
    40    23    24    1
    41    39    37   ar
    42    22    20   ar
    43    15    17   ar
    44     2     5    1
    45     2     1    1
    46    56    54   ar
    47    25    24    1
    48    25    26    2
    49     5     6    1
    50    49    50    1
    51    18    20   ar
    52    18    17   ar
    53    24    27    1
    54    50    51   ar
    55    54    53   ar
    56     6     7    2
    57     6     8   am
    58   130   128   ar
    59   130   129   ar
    60   128   126   ar
    61    53    51   ar
    62   131   132    1
    63    29    28   ar
    64    27    28    1
    65   133   134    2
    66   133   132    1
    67   129   127   ar
    68   143   141   ar
    69   143   144   ar
    70    28    30   ar
    71   126   125   ar
    72   126   124   ar
    73   141   138   ar
    74   132   135    1
    75   125   123   ar
    76   127   124   ar
    77    59    60    1
    78   124   122   ar
    79    69    70    1
    80    69    66    1
    81   135   136    1
    82   144   142   ar
    83    65    66    1
    84    63    64    1
    85    63    60    1
    86   138   136   ar
    87   138   140   ar
    88   123   122   ar
    89   119   118    1
    90   119   120    2
    91    60    61    1
    92    61    62    2
    93   122   121    1
    94    70    72   am
    95    70    71    2
    96   136   137   ar
    97    66    67    1
    98   118   121    1
    99   118   117    1
   100    68    67    2
   101   142   140   ar
   102   140   139   ar
   103    67    73   am
   104   116   114   ar
   105   137   139   ar
   106   114   115   ar
   107   114   113    1
   108    73    74    1
   109   107   106    1
   110    80    79   ar
   111   113   112    1
   112    77    74    1
   113    77    78    1
   114    79    78    1
   115    79    81   ar
   116    95    93   ar
   117    95    94   ar
   118    93    91   ar
   119    74    75    1
   120    75    76    2
   121   112   109    1
   122   106   105   ar
   123   106   104   ar
   124   109   108    1
   125   109   110    1
   126    94    92   ar
   127   105   103   ar
   128    91    90   ar
   129    91    89   ar
   130   104   102   ar
   131    90    88   ar
   132   110   111    2
   133    92    89   ar
   134    89    87   ar
   135   103   101   ar
   136   102   101   ar
   137    88    87   ar
   138    87    86    1
   139   101   100    1
   140    86    83    1
   141   100    97    1
   142    96    97    1
   143    97    98    1
   144    83    82    1
   145    83    84    1
   146    85    84    2
   147    98    99    2
