@<TRIPOS>MOLECULE
tmp/2vjyD04.pdb
 98 95 0 0 0
SMALL
GASTEIGER

@<TRIPOS>ATOM
      1  N         37.0240   27.7730  -32.2710 N.3    91  HIS91      -0.1241
      2  CA        36.7440   28.7530  -31.2330 C.3    91  HIS91       0.1621
      3  C         36.4540   30.1230  -31.8660 C.2    91  HIS91       0.2264
      4  O         37.0790   31.1350  -31.5130 O.2    91  HIS91      -0.2867
      5  CB        37.9180   28.8950  -30.2430 C.3    91  HIS91       0.0745
      6  CG        38.2580   27.6540  -29.4700 C.ar   91  HIS91       0.0817
      7  ND1       38.3720   26.4010  -30.0500 N.ar   91  HIS91      -0.2268
      8  CD2       38.6020   27.4890  -28.1700 C.ar   91  HIS91       0.1154
      9  CE1       38.7260   25.5230  -29.1360 C.ar   91  HIS91       0.1986
     10  NE2       38.8890   26.1580  -27.9900 N.ar   91  HIS91      -0.2212
     11  N         32.5320   30.5480  -29.3420 N.3   160  ARG160     -0.1245
     12  CA        32.0460   29.3430  -29.9960 C.3   160  ARG160      0.1563
     13  C         30.6750   29.7060  -30.5460 C.2   160  ARG160      0.2260
     14  O         30.0300   30.6620  -30.0700 O.2   160  ARG160     -0.2867
     15  CB        31.8690   28.2270  -28.9990 C.3   160  ARG160      0.0307
     16  CG        33.1080   27.9160  -28.2410 C.3   160  ARG160      0.0489
     17  CD        33.8780   26.8590  -28.8690 C.3   160  ARG160      0.2205
     18  NE        34.7280   26.3000  -27.8270 N.pl3 160  ARG160     -0.0865
     19  CZ        35.3300   25.1140  -27.8830 C.cat 160  ARG160      0.5346
     20  NH1       35.2340   24.3320  -28.9460 N.pl3 160  ARG160      0.1354
     21  NH2       36.0670   24.7280  -26.8710 N.pl3 160  ARG160      0.1354
     22  N         45.0890   29.4340  -29.0750 N.3   220  CYS220     -0.1235
     23  CA        44.1330   30.0630  -28.1990 C.3   220  CYS220      0.1677
     24  C         44.5920   31.4220  -27.6750 C.2   220  CYS220      0.2270
     25  O         43.7980   32.1710  -27.1180 O.2   220  CYS220     -0.2867
     26  CB        43.7210   29.1360  -27.0820 C.3   220  CYS220      0.0956
     27  SG        42.7160   27.7060  -27.6000 S.3   220  CYS220     -0.0801
     28  N         41.2620   33.5450  -27.9670 N.3   224  HIS224     -0.1241
     29  CA        40.8050   34.0170  -26.6670 C.3   224  HIS224      0.1621
     30  C         41.5160   35.2650  -26.1750 C.2   224  HIS224      0.2264
     31  O         41.5560   35.5300  -24.9680 O.2   224  HIS224     -0.2867
     32  CB        40.8030   32.8710  -25.6230 C.3   224  HIS224      0.0745
     33  CG        39.8160   31.8020  -25.9640 C.ar  224  HIS224      0.0817
     34  ND1       40.1770   30.6190  -26.5860 N.ar  224  HIS224     -0.2268
     35  CD2       38.4640   31.7840  -25.8780 C.ar  224  HIS224      0.1154
     36  CE1       39.0950   29.8990  -26.8170 C.ar  224  HIS224      0.1986
     37  NE2       38.0440   30.5890  -26.4040 N.ar  224  HIS224     -0.2212
     38  N         47.9280   29.1980  -24.7160 N.3   285  GLY285     -0.1210
     39  CA        46.8320   28.6840  -25.5560 C.3   285  GLY285      0.1956
     40  C         47.1390   27.5100  -26.4960 C.2   285  GLY285      0.2612
     41  O         46.6620   27.4730  -27.6580 O.2   285  GLY285     -0.2717
     42  N         47.9050   26.5280  -26.0040 N.am  286  ALA286     -0.1965
     43  CA        48.1140   25.2760  -26.7500 C.3   286  ALA286      0.1728
     44  C         46.8370   24.6520  -27.3550 C.2   286  ALA286      0.2616
     45  O         45.7720   24.5940  -26.7280 O.2   286  ALA286     -0.2715
     46  CB        48.8150   24.2200  -25.8700 C.3   286  ALA286      0.0334
     47  N         46.9750   24.0990  -28.5500 N.am  287  LEU287     -0.1977
     48  CA        45.8650   23.4030  -29.2010 C.3   287  LEU287      0.1596
     49  C         46.6470   22.4560  -30.0550 C.2   287  LEU287      0.2287
     50  O         47.0780   22.8060  -31.1550 O.2   287  LEU287     -0.2864
     51  CB        44.9770   24.3660  -30.0470 C.3   287  LEU287      0.0297
     52  CG        43.5810   23.8040  -30.3510 C.3   287  LEU287      0.0022
     53  CD1       42.5860   24.8720  -30.8310 C.3   287  LEU287      0.0001
     54  CD2       43.6110   22.5720  -31.3440 C.3   287  LEU287      0.0001
     55  N         45.8900   28.5320  -20.3410 N.3   309  HIS309     -0.1226
     56  CA        44.6400   28.2590  -21.0630 C.3   309  HIS309      0.1752
     57  C         43.5150   29.2570  -20.7600 C.2   309  HIS309      0.2597
     58  O         43.4930   29.9270  -19.7190 O.2   309  HIS309     -0.2718
     59  CB        44.1880   26.8270  -20.8650 C.3   309  HIS309      0.0759
     60  CG        45.0260   25.8630  -21.6110 C.ar  309  HIS309      0.0818
     61  ND1       44.7880   25.5530  -22.9360 N.ar  309  HIS309     -0.2268
     62  CD2       46.1410   25.1830  -21.2570 C.ar  309  HIS309      0.1154
     63  CE1       45.7010   24.6910  -23.3570 C.ar  309  HIS309      0.1986
     64  NE2       46.5380   24.4530  -22.3660 N.ar  309  HIS309     -0.2212
     65  N         42.5860   29.3780  -21.6870 N.am  310  SER310     -0.1938
     66  CA        41.4760   30.2490  -21.4450 C.3   310  SER310      0.2055
     67  C         40.8970   30.1220  -20.0770 C.2   310  SER310      0.2643
     68  O         40.5780   31.0990  -19.4470 O.2   310  SER310     -0.2714
     69  CB        40.3690   29.9890  -22.4270 C.3   310  SER310      0.2130
     70  OG        40.0250   31.2530  -22.9040 O.3   310  SER310     -0.2179
     71  N         40.7840   28.9050  -19.5980 N.am  311  ASP311     -0.1957
     72  CA        39.9020   28.6740  -18.4670 C.3   311  ASP311      0.1840
     73  C         40.5790   27.9670  -17.3040 C.2   311  ASP311      0.2622
     74  O         39.9210   27.6950  -16.2690 O.2   311  ASP311     -0.2715
     75  CB        38.6170   27.9350  -18.9040 C.3   311  ASP311      0.1450
     76  CG        37.5770   27.8960  -17.7830 C.2   311  ASP311      0.3671
     77  OD1       37.1050   26.7820  -17.4710 O.co2 311  ASP311     -0.2456
     78  OD2       37.2830   28.9860  -17.1810 O.co2 311  ASP311     -0.2456
     79  N         41.8880   27.7180  -17.4590 N.am  312  TYR312     -0.1974
     80  CA        42.6520   27.0190  -16.4460 C.3   312  TYR312      0.1639
     81  C         44.1380   27.1730  -16.7250 C.2   312  TYR312      0.2290
     82  O         44.5350   27.4490  -17.8560 O.2   312  TYR312     -0.2864
     83  CB        42.2770   25.5020  -16.3840 C.3   312  TYR312      0.0560
     84  CG        42.6780   24.7140  -17.6150 C.ar  312  TYR312     -0.0198
     85  CD1       41.8480   24.6720  -18.7170 C.ar  312  TYR312     -0.0009
     86  CD2       43.9050   24.0230  -17.6680 C.ar  312  TYR312     -0.0009
     87  CE1       42.1720   23.9780  -19.8420 C.ar  312  TYR312      0.0417
     88  CE2       44.2690   23.2890  -18.7950 C.ar  312  TYR312      0.0417
     89  CZ        43.3790   23.2860  -19.8990 C.ar  312  TYR312      0.1957
     90  OH        43.7050   22.6080  -21.0770 O.3   312  TYR312     -0.2866
     91  N         43.6000   32.4380  -18.2850 N.3   325  MET325     -0.1245
     92  CA        44.8440   32.9980  -18.7620 C.3   325  MET325      0.1570
     93  C         44.9220   34.5320  -18.9070 C.2   325  MET325      0.2261
     94  O         45.9610   35.1010  -18.5980 O.2   325  MET325     -0.2867
     95  CB        45.2730   32.3090  -20.0440 C.3   325  MET325      0.0387
     96  CG        44.6120   32.7240  -21.2700 C.3   325  MET325      0.0595
     97  SD        45.4800   31.9670  -22.6390 S.3   325  MET325     -0.1393
     98  CE        44.1310   32.0170  -23.8600 C.3   325  MET325      0.0692
@<TRIPOS>BOND
     1     1     2    1
     2     3     4    2
     3     3     2    1
     4    54    52    1
     5     2     5    1
     6    50    49    2
     7    53    52    1
     8    13    14    2
     9    13    12    1
    10    52    51    1
    11     5     6    1
    12    49    48    1
    13     7     6   ar
    14     7     9   ar
    15    51    48    1
    16    12    11    1
    17    12    15    1
    18     6     8   ar
    19    48    47    1
    20     9    10   ar
    21    22    23    1
    22    15    16    1
    23    20    19    1
    24    17    16    1
    25    17    18    1
    26    47    44   am
    27    23    24    1
    28    23    26    1
    29     8    10   ar
    30    28    29    1
    31    19    18    2
    32    19    21    1
    33    24    25    2
    34    41    40    2
    35    27    26    1
    36    44    43    1
    37    44    45    2
    38    36    34   ar
    39    36    37   ar
    40    43    42    1
    41    43    46    1
    42    29    30    1
    43    29    32    1
    44    34    33   ar
    45    40    42   am
    46    40    39    1
    47    37    35   ar
    48    30    31    2
    49    33    35   ar
    50    33    32    1
    51    39    38    1
    52    98    97    1
    53    63    61   ar
    54    63    64   ar
    55    61    60   ar
    56    70    69    1
    57    97    96    1
    58    69    66    1
    59    64    62   ar
    60    65    66    1
    61    65    57   am
    62    60    62   ar
    63    60    59    1
    64    66    67    1
    65    96    95    1
    66    90    89    1
    67    56    59    1
    68    56    57    1
    69    56    55    1
    70    57    58    2
    71    67    71   am
    72    67    68    2
    73    95    92    1
    74    89    87   ar
    75    89    88   ar
    76    87    85   ar
    77    71    72    1
    78    93    92    1
    79    93    94    2
    80    75    72    1
    81    75    76    1
    82    88    86   ar
    83    92    91    1
    84    85    84   ar
    85    72    73    1
    86    82    81    2
    87    76    77   ar
    88    76    78   ar
    89    86    84   ar
    90    84    83    1
    91    79    73   am
    92    79    80    1
    93    73    74    2
    94    81    80    1
    95    80    83    1
