@<TRIPOS>MOLECULE
tmp/2vk1C01.pdb
 73 70 0 0 0
SMALL
GASTEIGER

@<TRIPOS>ATOM
      1  N         44.4760   -7.1210  -53.8930 N.3    24  LEU24      -0.1231
      2  CA        43.4410   -6.3020  -54.5400 C.3    24  LEU24       0.1678
      3  C         43.2910   -4.9700  -53.8010 C.2    24  LEU24       0.2434
      4  O         43.4720   -4.9090  -52.5680 O.2    24  LEU24      -0.2733
      5  CB        42.0730   -7.0000  -54.5320 C.3    24  LEU24       0.0284
      6  CG        41.7730   -7.9230  -55.7090 C.3    24  LEU24       0.0019
      7  CD1       42.3760   -9.2920  -55.4050 C.3    24  LEU24       0.0001
      8  CD2       40.2820   -8.0430  -55.9900 C.3    24  LEU24       0.0001
      9  N         42.9420   -3.9060  -54.5350 N.am   25  PRO25      -0.2718
     10  CA        42.7780   -2.6030  -53.8630 C.3    25  PRO25       0.1535
     11  C         41.4950   -2.5060  -53.0420 C.2    25  PRO25       0.2599
     12  O         40.5440   -3.2560  -53.2550 O.2    25  PRO25      -0.2715
     13  CB        42.6900   -1.6150  -55.0300 C.3    25  PRO25       0.0310
     14  CG        42.0370   -2.4280  -56.1620 C.3    25  PRO25       0.0237
     15  CD        42.6970   -3.8200  -55.9960 C.3    25  PRO25       0.0939
     16  N         41.5160   -1.5950  -52.0830 N.am   26  GLY26      -0.1941
     17  CA        40.3620   -1.2060  -51.2960 C.3    26  GLY26       0.2014
     18  C         40.6370    0.2060  -50.8020 C.2    26  GLY26       0.2638
     19  O         41.7830    0.6170  -50.7030 O.2    26  GLY26      -0.2714
     20  N         39.5900    0.9470  -50.4620 N.am   27  ALA27      -0.1977
     21  CA        39.7990    2.3170  -49.9850 C.3    27  ALA27       0.1597
     22  C         40.9250    2.4150  -48.9430 C.2    27  ALA27       0.2287
     23  O         41.7300    3.3670  -48.9880 O.2    27  ALA27      -0.2864
     24  CB        38.4890    2.9280  -49.4530 C.3    27  ALA27       0.0319
     25  N         41.1890  -12.1800  -53.6660 N.3    50  GLU50      -0.1245
     26  CA        42.2370  -12.2040  -52.6100 C.3    50  GLU50       0.1567
     27  C         42.7600  -13.5880  -52.2910 C.2    50  GLU50       0.2260
     28  O         43.9430  -13.7500  -51.9750 O.2    50  GLU50      -0.2867
     29  CB        41.7370  -11.4980  -51.3450 C.3    50  GLU50       0.0388
     30  CG        41.6600   -9.9900  -51.4800 C.3    50  GLU50       0.1160
     31  CD        40.3290   -9.4960  -52.0490 C.2    50  GLU50       0.3649
     32  OE1       39.4960  -10.3310  -52.5010 O.co2  50  GLU50      -0.2457
     33  OE2       40.1250   -8.2620  -51.9530 O.co2  50  GLU50      -0.2457
     34  N         42.7690   -5.4110  -48.1550 N.3    72  THR72      -0.1218
     35  CA        42.0640   -4.3970  -47.4010 C.3    72  THR72       0.1862
     36  C         41.4050   -5.0310  -46.1600 C.2    72  THR72       0.2287
     37  O         41.0320   -6.2070  -46.1380 O.2    72  THR72      -0.2866
     38  CB        41.0590   -3.6360  -48.2940 C.3    72  THR72       0.1770
     39  OG1       40.6260   -2.4390  -47.6170 O.3    72  THR72      -0.2211
     40  CG2       39.8800   -4.5210  -48.5880 C.3    72  THR72       0.0375
     41  N         37.3070   -7.4880  -45.4970 N.3    75  VAL75      -0.1245
     42  CA        36.8740   -8.2330  -46.7170 C.3    75  VAL75       0.1561
     43  C         38.0230   -8.8250  -47.5470 C.2    75  VAL75       0.2260
     44  O         37.8910   -9.9260  -48.1410 O.2    75  VAL75      -0.2867
     45  CB        35.9660   -7.3790  -47.6440 C.3    75  VAL75       0.0252
     46  CG1       34.6180   -7.0630  -46.9430 C.3    75  VAL75       0.0019
     47  CG2       36.6740   -6.1010  -48.0770 C.3    75  VAL75       0.0019
     48  N         39.3090  -12.9820  -46.9780 N.3    79  SER79      -0.1217
     49  CA        39.2890  -13.7480  -48.2060 C.3    79  SER79       0.1889
     50  C         40.6350  -14.4880  -48.4090 C.2    79  SER79       0.2288
     51  O         40.6510  -15.5720  -48.9560 O.2    79  SER79      -0.2866
     52  CB        39.0010  -12.8490  -49.3930 C.3    79  SER79       0.2089
     53  OG        37.7200  -12.2460  -49.2790 O.3    79  SER79      -0.2183
     54  N         32.3810    0.7410  -43.2800 N.3   113  HIS113     -0.1226
     55  CA        32.2440   -0.4290  -44.1270 C.3   113  HIS113      0.1752
     56  C         33.4090   -1.3890  -43.8670 C.2   113  HIS113      0.2596
     57  O         34.4810   -0.9680  -43.4050 O.2   113  HIS113     -0.2718
     58  CB        32.0890   -0.0330  -45.6110 C.3   113  HIS113      0.0759
     59  CG        33.3220    0.5550  -46.2260 C.ar  113  HIS113      0.0818
     60  ND1       33.9440    1.6860  -45.7400 N.ar  113  HIS113     -0.2268
     61  CD2       34.0210    0.1910  -47.3280 C.ar  113  HIS113      0.1154
     62  CE1       34.9900    1.9770  -46.4970 C.ar  113  HIS113      0.1986
     63  NE2       35.0640    1.0810  -47.4640 N.ar  113  HIS113     -0.2212
     64  N         33.1620   -2.6800  -44.1040 N.am  114  HIS114     -0.1975
     65  CA        34.1700   -3.7680  -43.8510 C.3   114  HIS114      0.1656
     66  C         34.4670   -4.0310  -42.3510 C.2   114  HIS114      0.2291
     67  O         35.5000   -4.6450  -42.0040 O.2   114  HIS114     -0.2864
     68  CB        35.5070   -3.5200  -44.5940 C.3   114  HIS114      0.0771
     69  CG        35.3700   -3.1410  -46.0420 C.ar  114  HIS114      0.0820
     70  ND1       34.3030   -3.5250  -46.8320 N.ar  114  HIS114     -0.2267
     71  CD2       36.1870   -2.4180  -46.8400 C.ar  114  HIS114      0.1154
     72  CE1       34.4640   -3.0450  -48.0560 C.ar  114  HIS114      0.1986
     73  NE2       35.6050   -2.3760  -48.0900 N.ar  114  HIS114     -0.2212
@<TRIPOS>BOND
     1    14    15    1
     2    14    13    1
     3    15     9    1
     4     8     6    1
     5     6     7    1
     6     6     5    1
     7    13    10    1
     8     2     5    1
     9     2     1    1
    10     2     3    1
    11     9    10    1
    12     9     3   am
    13    10    11    1
    14     3     4    2
    15    25    26    1
    16    12    11    2
    17    11    16   am
    18    26    27    1
    19    26    29    1
    20    32    31   ar
    21    27    28    2
    22    16    17    1
    23    31    33   ar
    24    31    30    1
    25    30    29    1
    26    17    18    1
    27    18    19    2
    28    18    20   am
    29    20    21    1
    30    21    24    1
    31    21    22    1
    32    52    53    1
    33    52    49    1
    34    23    22    2
    35    51    50    2
    36    40    38    1
    37    50    49    1
    38    38    39    1
    39    38    35    1
    40    49    48    1
    41    34    35    1
    42    44    43    2
    43    73    72   ar
    44    73    71   ar
    45    47    45    1
    46    72    70   ar
    47    45    46    1
    48    45    42    1
    49    43    42    1
    50    63    61   ar
    51    63    62   ar
    52    35    36    1
    53    61    59   ar
    54    71    69   ar
    55    70    69   ar
    56    42    41    1
    57    62    60   ar
    58    59    60   ar
    59    59    58    1
    60    36    37    2
    61    69    68    1
    62    58    55    1
    63    68    65    1
    64    55    56    1
    65    55    54    1
    66    64    56   am
    67    64    65    1
    68    56    57    2
    69    65    66    1
    70    66    67    2
