@<TRIPOS>MOLECULE
tmp/2vk1C00.pdb
 156 148 0 0 0
SMALL
GASTEIGER

@<TRIPOS>ATOM
      1  N         41.8850  -14.6010  -52.3380 N.3    51  LEU51      -0.1245
      2  CA        42.3320  -15.9810  -52.0920 C.3    51  LEU51       0.1561
      3  C         43.3920  -16.3540  -53.1370 C.2    51  LEU51       0.2260
      4  O         44.4650  -16.8970  -52.7840 O.2    51  LEU51      -0.2867
      5  CB        41.1670  -16.9740  -52.1400 C.3    51  LEU51       0.0270
      6  CG        41.5260  -18.4630  -51.8740 C.3    51  LEU51       0.0019
      7  CD1       42.3390  -18.6600  -50.5360 C.3    51  LEU51       0.0001
      8  CD2       40.2880  -19.3680  -51.9020 C.3    51  LEU51       0.0001
      9  N         47.4140  -17.4030  -52.7630 N.3    55  TYR55      -0.1241
     10  CA        47.9830  -18.5590  -53.4800 C.3    55  TYR55       0.1605
     11  C         49.1450  -18.1180  -54.4040 C.2    55  TYR55       0.2264
     12  O         50.2070  -18.7540  -54.4320 O.2    55  TYR55      -0.2867
     13  CB        46.9020  -19.2070  -54.3500 C.3    55  TYR55       0.0534
     14  CG        45.8070  -19.9520  -53.6270 C.ar   55  TYR55      -0.0201
     15  CD1       45.9930  -20.4800  -52.3350 C.ar   55  TYR55      -0.0009
     16  CD2       44.5740  -20.1630  -54.2600 C.ar   55  TYR55      -0.0009
     17  CE1       44.9810  -21.2210  -51.6970 C.ar   55  TYR55       0.0417
     18  CE2       43.5620  -20.9000  -53.6430 C.ar   55  TYR55       0.0417
     19  CZ        43.7610  -21.4110  -52.3560 C.ar   55  TYR55       0.1957
     20  OH        42.7490  -22.1300  -51.7680 O.3    55  TYR55      -0.2866
     21  N         42.7920  -18.6830  -46.1750 N.3    82  ASN82      -0.1240
     22  CA        43.1190  -20.0500  -46.5300 C.3    82  ASN82       0.1653
     23  C         44.4720  -20.1140  -47.2590 C.2    82  ASN82       0.2266
     24  O         45.1950  -21.1050  -47.1550 O.2    82  ASN82      -0.2867
     25  CB        42.0320  -20.6850  -47.3960 C.3    82  ASN82       0.1155
     26  CG        42.3030  -22.1420  -47.6650 C.2    82  ASN82       0.2627
     27  OD1       42.6210  -22.8970  -46.7500 O.2    82  ASN82      -0.2716
     28  ND2       42.2330  -22.5400  -48.9470 N.am   82  ASN82      -0.0877
     29  N         46.6620  -31.0050  -55.8590 N.3   387  THR387     -0.1203
     30  CA        45.9980  -32.0300  -55.0560 C.3   387  THR387      0.1994
     31  C         44.8730  -32.7030  -55.8610 C.2   387  THR387      0.2618
     32  O         44.0130  -32.0270  -56.4420 O.2   387  THR387     -0.2717
     33  CB        45.4450  -31.4170  -53.7370 C.3   387  THR387      0.1784
     34  OG1       46.5390  -30.8550  -52.9780 O.3   387  THR387     -0.2211
     35  CG2       44.6740  -32.4410  -52.8920 C.3   387  THR387      0.0376
     36  N         44.9030  -34.0390  -55.8680 N.am  388  GLY388     -0.1942
     37  CA        44.0880  -34.8470  -56.7830 C.3   388  GLY388      0.2014
     38  C         45.0070  -35.8340  -57.4840 C.2   388  GLY388      0.2640
     39  O         46.1220  -36.0780  -57.0170 O.2   388  GLY388     -0.2714
     40  N         44.5460  -36.4170  -58.5990 N.am  389  THR389     -0.1936
     41  CA        45.3900  -37.3950  -59.3020 C.3   389  THR389      0.2028
     42  C         46.7370  -36.7840  -59.6730 C.2   389  THR389      0.2642
     43  O         47.7440  -37.4830  -59.6380 O.2   389  THR389     -0.2714
     44  CB        44.6820  -38.0370  -60.5690 C.3   389  THR389      0.1808
     45  OG1       44.3550  -37.0250  -61.5320 O.3   389  THR389     -0.2208
     46  CG2       43.4330  -38.8450  -60.1520 C.3   389  THR389      0.0379
     47  N         46.7690  -35.4880  -59.9940 N.am  390  SER390     -0.1949
     48  CA        48.0290  -34.8400  -60.4510 C.3   390  SER390      0.1924
     49  C         49.1450  -34.8880  -59.3950 C.2   390  SER390      0.2314
     50  O         50.2980  -35.3040  -59.6880 O.2   390  SER390     -0.2863
     51  CB        47.7940  -33.3960  -60.9000 C.3   390  SER390      0.2116
     52  OG        46.9640  -33.3630  -62.0520 O.3   390  SER390     -0.2180
     53  N         47.1050  -29.0640  -48.8990 N.3   412  GLY412     -0.1210
     54  CA        46.2440  -29.7380  -49.9060 C.3   412  GLY412      0.1956
     55  C         44.9770  -28.9750  -50.2400 C.2   412  GLY412      0.2613
     56  O         43.9020  -29.5690  -50.3410 O.2   412  GLY412     -0.2717
     57  N         45.0820  -27.6580  -50.3730 N.am  413  SER413     -0.1938
     58  CA        43.9210  -26.8620  -50.7770 C.3   413  SER413      0.2055
     59  C         43.6900  -26.8820  -52.3020 C.2   413  SER413      0.2642
     60  O         44.4580  -26.2530  -53.0590 O.2   413  SER413     -0.2714
     61  CB        44.0760  -25.4330  -50.2840 C.3   413  SER413      0.2130
     62  OG        42.9010  -24.7120  -50.6160 O.3   413  SER413     -0.2179
     63  N         42.6230  -27.5390  -52.7820 N.am  414  ILE414     -0.1977
     64  CA        42.4450  -27.5750  -54.2480 C.3   414  ILE414      0.1596
     65  C         42.1470  -26.1870  -54.7790 C.2   414  ILE414      0.2287
     66  O         41.4370  -25.4280  -54.1460 O.2   414  ILE414     -0.2864
     67  CB        41.4000  -28.6200  -54.7550 C.3   414  ILE414      0.0276
     68  CG1       40.0080  -28.4050  -54.1400 C.3   414  ILE414      0.0022
     69  CG2       41.9050  -30.0190  -54.4720 C.3   414  ILE414      0.0022
     70  CD1       38.8690  -29.0240  -55.0470 C.3   414  ILE414      0.0001
     71  N         43.5790  -30.5890  -61.9590 N.3   442  GLY442     -0.1210
     72  CA        42.3460  -31.2810  -62.2700 C.3   442  GLY442      0.1956
     73  C         41.2350  -30.3520  -62.7150 C.2   442  GLY442      0.2612
     74  O         41.1900  -29.1480  -62.3580 O.2   442  GLY442     -0.2717
     75  N         40.3140  -30.9030  -63.5000 N.am  443  ASP443     -0.1959
     76  CA        39.0980  -30.1760  -63.8600 C.3   443  ASP443      0.1840
     77  C         38.2850  -29.6710  -62.6430 C.2   443  ASP443      0.2623
     78  O         37.7780  -28.5600  -62.6700 O.2   443  ASP443     -0.2715
     79  CB        38.2160  -31.0040  -64.8200 C.3   443  ASP443      0.1450
     80  CG        37.7850  -32.3460  -64.2480 C.2   443  ASP443      0.3671
     81  OD1       38.3530  -32.8460  -63.2370 O.co2 443  ASP443     -0.2456
     82  OD2       36.8370  -32.9290  -64.8390 O.co2 443  ASP443     -0.2456
     83  N         38.1930  -30.4700  -61.5830 N.am  444  GLY444     -0.1940
     84  CA        37.4600  -30.0550  -60.3790 C.3   444  GLY444      0.2014
     85  C         38.1320  -28.8590  -59.7010 C.2   444  GLY444      0.2639
     86  O         37.4840  -27.8400  -59.3980 O.2   444  GLY444     -0.2714
     87  N         39.4390  -28.9830  -59.4730 N.am  445  SER445     -0.1949
     88  CA        40.2530  -27.9370  -58.7990 C.3   445  SER445      0.1924
     89  C         40.2760  -26.6370  -59.5590 C.2   445  SER445      0.2314
     90  O         40.2110  -25.5400  -58.9680 O.2   445  SER445     -0.2863
     91  CB        41.6930  -28.4430  -58.6340 C.3   445  SER445      0.2116
     92  OG        41.6860  -29.5350  -57.7550 O.3   445  SER445     -0.2180
     93  N         37.6640  -23.7620  -58.7050 N.3   448  LEU448     -0.1245
     94  CA        37.7260  -22.9280  -57.4920 C.3   448  LEU448      0.1561
     95  C         38.4790  -21.6070  -57.6780 C.2   448  LEU448      0.2260
     96  O         38.1570  -20.6280  -57.0090 O.2   448  LEU448     -0.2867
     97  CB        38.3150  -23.7100  -56.3140 C.3   448  LEU448      0.0270
     98  CG        37.3780  -24.7520  -55.6590 C.3   448  LEU448      0.0019
     99  CD1       37.1800  -26.0270  -56.5260 C.3   448  LEU448      0.0001
    100  CD2       37.9740  -25.0770  -54.2790 C.3   448  LEU448      0.0001
    101  N         43.3760  -31.8030  -66.4960 N.3   468  LEU468     -0.1245
    102  CA        42.9520  -33.2050  -66.5620 C.3   468  LEU468      0.1561
    103  C         41.4470  -33.3420  -66.4550 C.2   468  LEU468      0.2260
    104  O         40.8730  -33.1750  -65.3730 O.2   468  LEU468     -0.2867
    105  CB        43.6190  -34.0350  -65.4580 C.3   468  LEU468      0.0270
    106  CG        45.1460  -34.0270  -65.3800 C.3   468  LEU468      0.0019
    107  CD1       45.6200  -35.1550  -64.5020 C.3   468  LEU468      0.0001
    108  CD2       45.8400  -34.0800  -66.7610 C.3   468  LEU468      0.0001
    109  N         38.6440  -35.5910  -66.2940 N.3   470  ASN470     -0.1240
    110  CA        38.1680  -36.9320  -65.9640 C.3   470  ASN470      0.1653
    111  C         36.7440  -36.8430  -65.3970 C.2   470  ASN470      0.2266
    112  O         36.2670  -37.7320  -64.7030 O.2   470  ASN470     -0.2867
    113  CB        39.1410  -37.6890  -65.0320 C.3   470  ASN470      0.1155
    114  CG        39.5380  -36.8650  -63.8170 C.2   470  ASN470      0.2627
    115  OD1       38.8300  -35.9260  -63.4500 O.2   470  ASN470     -0.2716
    116  ND2       40.6650  -37.2050  -63.1980 N.am  470  ASN470     -0.0877
    117  N         35.1020  -34.9270  -63.1290 N.3   472  GLY472     -0.1210
    118  CA        34.7460  -34.7770  -61.7150 C.3   472  GLY472      0.1956
    119  C         35.9270  -34.9810  -60.7860 C.2   472  GLY472      0.2612
    120  O         37.0750  -34.8820  -61.2140 O.2   472  GLY472     -0.2717
    121  N         35.6240  -35.2670  -59.5270 N.am  473  TYR473     -0.1962
    122  CA        36.6160  -35.4190  -58.4660 C.3   473  TYR473      0.1771
    123  C         37.0600  -36.8770  -58.3290 C.2   473  TYR473      0.2620
    124  O         36.5980  -37.6050  -57.4350 O.2   473  TYR473     -0.2715
    125  CB        36.0270  -34.9630  -57.1230 C.3   473  TYR473      0.0574
    126  CG        35.4940  -33.5290  -57.0180 C.ar  473  TYR473     -0.0198
    127  CD1       36.0340  -32.4860  -57.7660 C.ar  473  TYR473     -0.0009
    128  CD2       34.4700  -33.2270  -56.1200 C.ar  473  TYR473     -0.0009
    129  CE1       35.5550  -31.1820  -57.6270 C.ar  473  TYR473      0.0417
    130  CE2       33.9900  -31.9480  -55.9800 C.ar  473  TYR473      0.0417
    131  CZ        34.5300  -30.9260  -56.7310 C.ar  473  TYR473      0.1957
    132  OH        34.0520  -29.6430  -56.6030 O.3   473  TYR473     -0.2866
    133  N         37.9370  -37.3200  -59.1880 N.am  474  THR474     -0.1937
    134  CA        38.2950  -38.6890  -59.2110 C.3   474  THR474      0.2028
    135  C         38.9380  -39.1610  -57.8720 C.2   474  THR474      0.2642
    136  O         38.5880  -40.1640  -57.3800 O.2   474  THR474     -0.2714
    137  CB        39.1660  -38.9680  -60.4420 C.3   474  THR474      0.1808
    138  OG1       39.7630  -40.2430  -60.3930 O.3   474  THR474     -0.2208
    139  CG2       38.4800  -38.7220  -61.6520 C.3   474  THR474      0.0379
    140  N         39.8790  -38.3890  -57.3250 N.am  475  ILE475     -0.1963
    141  CA        40.4430  -38.6410  -55.9760 C.3   475  ILE475      0.1727
    142  C         39.3600  -38.8570  -54.8930 C.2   475  ILE475      0.2616
    143  O         39.4520  -39.7890  -54.0920 O.2   475  ILE475     -0.2715
    144  CB        41.4630  -37.5210  -55.5290 C.3   475  ILE475      0.0290
    145  CG1       42.0310  -37.8310  -54.1420 C.3   475  ILE475      0.0022
    146  CG2       40.8110  -36.1300  -55.5810 C.3   475  ILE475      0.0023
    147  CD1       43.3560  -37.1510  -53.8480 C.3   475  ILE475      0.0001
    148  N         38.3340  -38.0080  -54.8820 N.am  476  GLU476     -0.1977
    149  CA        37.2150  -38.1570  -53.9300 C.3   476  GLU476      0.1602
    150  C         36.4380  -39.4730  -54.1580 C.2   476  GLU476      0.2287
    151  O         36.0760  -40.1800  -53.1980 O.2   476  GLU476     -0.2864
    152  CB        36.2530  -36.9650  -54.0280 C.3   476  GLU476      0.0415
    153  CG        36.8190  -35.5650  -53.7350 C.3   476  GLU476      0.1163
    154  CD        37.2670  -35.3630  -52.2900 C.2   476  GLU476      0.3649
    155  OE1       36.6090  -34.5650  -51.5750 O.co2 476  GLU476     -0.2457
    156  OE2       38.2820  -35.9880  -51.8690 O.co2 476  GLU476     -0.2457
@<TRIPOS>BOND
     1   108   106    1
     2   102   101    1
     3   102   103    1
     4   102   105    1
     5   103   104    2
     6   109   110    1
     7   110   111    1
     8   110   113    1
     9   105   106    1
    10   111   112    2
    11   106   107    1
    12   113   114    1
    13    82    80   ar
    14    79    80    1
    15    79    76    1
    16    80    81   ar
    17    76    75    1
    18    76    77    1
    19   114   115    2
    20   114   116   am
    21    75    73   am
    22   117   118    1
    23    73    74    2
    24    73    72    1
    25    78    77    2
    26    77    83   am
    27    72    71    1
    28    52    51    1
    29   118   119    1
    30   139   137    1
    31    83    84    1
    32    45    44    1
    33   120   119    2
    34    51    48    1
    35   119   121   am
    36    44    46    1
    37    44    41    1
    38    48    47    1
    39    48    49    1
    40   137   138    1
    41   137   134    1
    42    84    85    1
    43    47    42   am
    44    85    87   am
    45    85    86    2
    46    50    49    2
    47    42    43    2
    48    42    41    1
    49    89    90    2
    50    89    88    1
    51   121   122    1
    52    87    88    1
    53    41    40    1
    54   134   133    1
    55   134   135    1
    56   133   123   am
    57    88    91    1
    58    93    94    1
    59    91    92    1
    60    40    38   am
    61   122   123    1
    62   122   125    1
    63   123   124    2
    64   135   136    2
    65   135   140   am
    66   127   129   ar
    67   127   126   ar
    68    95    94    1
    69    95    96    2
    70   129   131   ar
    71    94    97    1
    72    38    39    2
    73    38    37    1
    74   140   141    1
    75   125   126    1
    76   126   128   ar
    77    37    36    1
    78   131   132    1
    79   131   130   ar
    80    99    98    1
    81    32    31    2
    82    97    98    1
    83   128   130   ar
    84   141   144    1
    85   141   142    1
    86    36    31   am
    87    31    30    1
    88    29    30    1
    89    98   100    1
    90   146   144    1
    91   144   145    1
    92    30    33    1
    93    70    68    1
    94   142   148   am
    95   142   143    2
    96   148   149    1
    97    65    64    1
    98    65    66    2
    99    67    69    1
   100    67    64    1
   101    67    68    1
   102    12    11    2
   103    11    10    1
   104    13    14    1
   105    13    10    1
   106    16    18   ar
   107    16    14   ar
   108    64    63    1
   109   150   149    1
   110   150   151    2
   111   145   147    1
   112   152   149    1
   113   152   153    1
   114    33    34    1
   115    33    35    1
   116   153   154    1
   117    18    19   ar
   118    14    15   ar
   119    10     9    1
   120     3     4    2
   121     3     2    1
   122    60    59    2
   123    63    59   am
   124    19    20    1
   125    19    17   ar
   126     1     2    1
   127    15    17   ar
   128    59    58    1
   129   154   156   ar
   130   154   155   ar
   131     5     2    1
   132     5     6    1
   133     8     6    1
   134     6     7    1
   135    58    57    1
   136    58    61    1
   137    62    61    1
   138    57    55   am
   139    56    55    2
   140    55    54    1
   141    54    53    1
   142    28    26   am
   143    26    25    1
   144    26    27    2
   145    25    22    1
   146    23    24    2
   147    23    22    1
   148    22    21    1
