@<TRIPOS>MOLECULE
tmp/2vk2A00.pdb
 133 124 0 0 0
SMALL
GASTEIGER

@<TRIPOS>ATOM
      1  N         34.8680   30.0180    4.3370 N.3    12  GLU12      -0.1231
      2  CA        33.5390   30.6210    4.4200 C.3    12  GLU12       0.1699
      3  C         33.4810   31.8360    5.3470 C.2    12  GLU12       0.2592
      4  O         32.6050   32.6870    5.1860 O.2    12  GLU12      -0.2718
      5  CB        32.4780   29.5790    4.8230 C.3    12  GLU12       0.0402
      6  CG        32.5080   29.0950    6.2810 C.3    12  GLU12       0.1161
      7  CD        33.6130   28.0950    6.5980 C.2    12  GLU12       0.3649
      8  OE1       34.3580   27.6710    5.6870 O.co2  12  GLU12      -0.2457
      9  OE2       33.7340   27.7360    7.7870 O.co2  12  GLU12      -0.2457
     10  N         34.4050   31.9170    6.3020 N.am   13  SER13      -0.1952
     11  CA        34.4240   33.0140    7.2670 C.3    13  SER13       0.1924
     12  C         35.8300   33.5580    7.4650 C.2    13  SER13       0.2314
     13  O         36.8170   32.8970    7.1410 O.2    13  SER13      -0.2863
     14  CB        33.8830   32.5300    8.6070 C.3    13  SER13       0.2116
     15  OG        34.8430   31.7270    9.2670 O.3    13  SER13      -0.2180
     16  N         37.1540   33.9150   10.3030 N.3    15  TRP15      -0.1227
     17  CA        37.7470   33.0540   11.3130 C.3    15  TRP15       0.1737
     18  C         38.4830   31.8780   10.6710 C.2    15  TRP15       0.2595
     19  O         39.6140   31.5810   11.0470 O.2    15  TRP15      -0.2718
     20  CB        36.7070   32.5350   12.3160 C.3    15  TRP15       0.0564
     21  CG        37.3680   31.7050   13.3570 C.ar   15  TRP15       0.0003
     22  CD1       37.8950   32.1370   14.5340 C.ar   15  TRP15       0.0946
     23  CD2       37.6540   30.3020   13.2800 C.ar   15  TRP15       0.0152
     24  NE1       38.4730   31.0890   15.2090 N.ar   15  TRP15      -0.2442
     25  CE2       38.3430   29.9530   14.4550 C.ar   15  TRP15       0.0810
     26  CE3       37.3910   29.3060   12.3290 C.ar   15  TRP15       0.0012
     27  CZ2       38.7630   28.6480   14.7160 C.ar   15  TRP15       0.0191
     28  CZ3       37.8110   28.0080   12.5890 C.ar   15  TRP15       0.0001
     29  CH2       38.4920   27.6950   13.7680 C.ar   15  TRP15       0.0015
     30  N         37.8520   31.2090    9.7120 N.am   16  ARG16      -0.1980
     31  CA        38.4930   30.0410    9.1040 C.3    16  ARG16       0.1597
     32  C         39.7140   30.4410    8.2850 C.2    16  ARG16       0.2287
     33  O         40.7050   29.7210    8.2630 O.2    16  ARG16      -0.2864
     34  CB        37.5280   29.2130    8.2550 C.3    16  ARG16       0.0334
     35  CG        38.1500   27.8670    7.8370 C.3    16  ARG16       0.0492
     36  CD        37.1350   26.8480    7.3500 C.3    16  ARG16       0.2205
     37  NE        36.1760   26.5300    8.3990 N.pl3  16  ARG16      -0.0865
     38  CZ        36.3990   25.7070    9.4180 C.cat  16  ARG16       0.5346
     39  NH1       37.5410   25.0500    9.5450 N.pl3  16  ARG16       0.1354
     40  NH2       35.4500   25.5430   10.3200 N.pl3  16  ARG16       0.1354
     41  N         38.4170   21.9480   15.2960 N.3    89  ASP89      -0.1225
     42  CA        37.3640   22.9970   15.3490 C.3    89  ASP89       0.1805
     43  C         35.9030   22.5590   15.1640 C.2    89  ASP89       0.2597
     44  O         35.0280   23.2370   15.6050 O.2    89  ASP89      -0.2718
     45  CB        37.7570   24.2210   14.4700 C.3    89  ASP89       0.1424
     46  CG        37.3660   24.0990   13.0150 C.2    89  ASP89       0.3668
     47  OD1       36.2090   24.0180   12.6960 O.co2  89  ASP89      -0.2456
     48  OD2       38.2530   24.1730   12.1660 O.co2  89  ASP89      -0.2456
     49  N         35.6960   21.4010   14.5650 N.am   90  ARG90      -0.1979
     50  CA        34.3700   20.6840   14.6120 C.3    90  ARG90       0.1597
     51  C         34.6000   19.2270   15.0060 C.2    90  ARG90       0.2287
     52  O         35.6580   18.7300   14.8610 O.2    90  ARG90      -0.2864
     53  CB        33.6590   20.7570   13.2650 C.3    90  ARG90       0.0334
     54  CG        33.4300   22.2390   12.7900 C.3    90  ARG90       0.0492
     55  CD        32.5360   22.3010   11.5890 C.3    90  ARG90       0.2205
     56  NE        32.4400   23.7500   11.1610 N.pl3  90  ARG90      -0.0865
     57  CZ        31.9890   24.1600    9.9990 C.cat  90  ARG90       0.5346
     58  NH1       31.4460   23.3570    9.1180 N.pl3  90  ARG90       0.1354
     59  NH2       32.0630   25.4340    9.6780 N.pl3  90  ARG90       0.1354
     60  N         36.6840   24.4470   20.8110 N.3   106  ALA106     -0.1245
     61  CA        36.0310   25.0980   21.9340 C.3   106  ALA106      0.1562
     62  C         34.8980   24.2090   22.4420 C.2   106  ALA106      0.2260
     63  O         34.4850   23.2520   21.7750 O.2   106  ALA106     -0.2867
     64  CB        35.4880   26.4530   21.5210 C.3   106  ALA106      0.0290
     65  N         31.4810   24.3610   22.4140 N.3   108  ASN108     -0.1240
     66  CA        30.5830   25.1650   21.5910 C.3   108  ASN108      0.1653
     67  C         29.2080   25.3320   22.2270 C.2   108  ASN108      0.2266
     68  O         28.5030   26.3000   21.9410 O.2   108  ASN108     -0.2867
     69  CB        30.4870   24.5700   20.1880 C.3   108  ASN108      0.1155
     70  CG        31.8470   24.3960   19.5460 C.2   108  ASN108      0.2627
     71  OD1       32.5640   25.3680   19.3010 O.2   108  ASN108     -0.2716
     72  ND2       32.2160   23.1550   19.2830 N.am  108  ASN108     -0.0877
     73  N         29.2700   22.2710   15.5350 N.3   141  VAL141     -0.1245
     74  CA        29.3080   23.5860   16.1630 C.3   141  VAL141      0.1561
     75  C         27.9730   24.3240   16.0500 C.2   141  VAL141      0.2260
     76  O         27.6060   25.0660   16.9580 O.2   141  VAL141     -0.2867
     77  CB        30.4700   24.4470   15.6020 C.3   141  VAL141      0.0252
     78  CG1       31.8110   23.8240   15.9720 C.3   141  VAL141      0.0019
     79  CG2       30.3520   24.6240   14.0980 C.3   141  VAL141      0.0019
     80  N         25.9820   25.2000   19.3650 N.3   145  ARG145     -0.1245
     81  CA        25.7030   26.6150   19.6250 C.3   145  ARG145      0.1563
     82  C         24.2060   26.8870   19.7160 C.2   145  ARG145      0.2260
     83  O         23.7760   27.7250   20.5030 O.2   145  ARG145     -0.2867
     84  CB        26.3550   27.5060   18.5690 C.3   145  ARG145      0.0307
     85  CG        27.8430   27.6110   18.7670 C.3   145  ARG145      0.0489
     86  CD        28.5400   28.2360   17.5950 C.3   145  ARG145      0.2205
     87  NE        29.9770   28.2640   17.8320 N.pl3 145  ARG145     -0.0865
     88  CZ        30.8810   28.5450   16.9020 C.cat 145  ARG145      0.5346
     89  NH1       30.5000   28.8220   15.6630 N.pl3 145  ARG145      0.1354
     90  NH2       32.1710   28.5300   17.2130 N.pl3 145  ARG145      0.1354
     91  N         27.2290   30.0490    7.7120 N.3   169  PHE169     -0.1241
     92  CA        28.4310   30.6510    8.3040 C.3   169  PHE169      0.1605
     93  C         29.0770   31.7660    7.4480 C.2   169  PHE169      0.2264
     94  O         30.2270   32.1340    7.6900 O.2   169  PHE169     -0.2867
     95  CB        29.4860   29.5680    8.6410 C.3   169  PHE169      0.0534
     96  CG        29.2680   28.8540    9.9620 C.ar  169  PHE169     -0.0203
     97  CD1       28.9640   29.5560   11.1240 C.ar  169  PHE169     -0.0042
     98  CD2       29.4480   27.4760   10.0520 C.ar  169  PHE169     -0.0042
     99  CE1       28.8080   28.8980   12.3340 C.ar  169  PHE169     -0.0003
    100  CE2       29.2820   26.8130   11.2630 C.ar  169  PHE169     -0.0003
    101  CZ        28.9730   27.5290   12.4050 C.ar  169  PHE169     -0.0000
    102  N         28.0160   32.5000   13.9840 N.3   198  ASN198     -0.1240
    103  CA        29.3090   33.1650   13.8650 C.3   198  ASN198      0.1653
    104  C         29.1720   34.6610   13.6200 C.2   198  ASN198      0.2266
    105  O         28.1130   35.1420   13.2140 O.2   198  ASN198     -0.2867
    106  CB        30.2460   32.4780   12.8440 C.3   198  ASN198      0.1155
    107  CG        29.9210   32.7920   11.3850 C.2   198  ASN198      0.2627
    108  OD1       28.8580   33.2980   11.0500 O.2   198  ASN198     -0.2716
    109  ND2       30.8510   32.4440   10.5010 N.am  198  ASN198     -0.0877
    110  N         33.0530   34.2340   17.5820 N.3   226  ASP226     -0.1239
    111  CA        34.3490   34.0310   16.8910 C.3   226  ASP226      0.1674
    112  C         35.3710   35.0580   17.3630 C.2   226  ASP226      0.2266
    113  O         36.5270   34.7210   17.5980 O.2   226  ASP226     -0.2867
    114  CB        34.2820   34.1070   15.3590 C.3   226  ASP226      0.1410
    115  CG        33.8640   32.8020   14.7100 C.2   226  ASP226      0.3668
    116  OD1       33.8250   31.7480   15.3830 O.co2 226  ASP226     -0.2456
    117  OD2       33.5810   32.8520   13.5030 O.co2 226  ASP226     -0.2456
    118  N         36.8840   32.9190   19.8350 N.3   246  LEU246     -0.1245
    119  CA        37.3190   31.5690   19.4990 C.3   246  LEU246      0.1561
    120  C         38.7280   31.6680   18.9360 C.2   246  LEU246      0.2260
    121  O         38.9460   32.3500   17.9370 O.2   246  LEU246     -0.2867
    122  CB        36.3920   30.9680   18.4460 C.3   246  LEU246      0.0270
    123  CG        36.7810   29.5950   17.8870 C.3   246  LEU246      0.0019
    124  CD1       36.6560   28.5240   18.9590 C.3   246  LEU246      0.0001
    125  CD2       35.9230   29.2640   16.6870 C.3   246  LEU246      0.0001
    126  N         43.8160   26.4330   16.3070 N.3   250  MET250     -0.1245
    127  CA        43.3970   25.0540   16.5040 C.3   250  MET250      0.1570
    128  C         44.5050   24.0930   16.0920 C.2   250  MET250      0.2261
    129  O         44.6290   23.0110   16.6600 O.2   250  MET250     -0.2867
    130  CB        42.1320   24.7800   15.6930 C.3   250  MET250      0.0387
    131  CG        40.9450   25.6050   16.1460 C.3   250  MET250      0.0595
    132  SD        40.2990   25.0290   17.7210 S.3   250  MET250     -0.1393
    133  CE        39.1080   26.3170   18.0940 C.3   250  MET250      0.0692
@<TRIPOS>BOND
     1     1     2    1
     2     2     5    1
     3     2     3    1
     4     5     6    1
     5     4     3    2
     6     3    10   am
     7     8     7   ar
     8     6     7    1
     9    10    11    1
    10     7     9   ar
    11    13    12    2
    12    11    12    1
    13    11    14    1
    14    36    35    1
    15    36    37    1
    16    93    94    2
    17    93    92    1
    18    91    92    1
    19    35    34    1
    20    34    31    1
    21    33    32    2
    22    32    31    1
    23    92    95    1
    24    37    38    2
    25    14    15    1
    26    95    96    1
    27    31    30    1
    28    58    57    1
    29    38    39    1
    30    38    40    1
    31    59    57    1
    32    30    18   am
    33    96    98   ar
    34    96    97   ar
    35    57    56    2
    36    98   100   ar
    37    16    17    1
    38   109   107   am
    39    18    19    2
    40    18    17    1
    41   108   107    2
    42    97    99   ar
    43    56    55    1
    44   100   101   ar
    45    17    20    1
    46   107   106    1
    47    55    54    1
    48    48    46   ar
    49    20    21    1
    50    26    28   ar
    51    26    23   ar
    52    99   101   ar
    53    28    29   ar
    54    47    46   ar
    55    54    53    1
    56   106   103    1
    57    46    45    1
    58   105   104    2
    59    53    50    1
    60    23    21   ar
    61    23    25   ar
    62    21    22   ar
    63   117   115   ar
    64   104   103    1
    65    29    27   ar
    66   103   102    1
    67    79    77    1
    68    25    27   ar
    69    25    24   ar
    70    45    42    1
    71    22    24   ar
    72    49    50    1
    73    49    43   am
    74    50    51    1
    75   115   114    1
    76   115   116   ar
    77    52    51    2
    78    43    42    1
    79    43    44    2
    80    41    42    1
    81   114   111    1
    82    73    74    1
    83    77    78    1
    84    77    74    1
    85    89    88    1
    86   130   131    1
    87   130   127    1
    88    75    74    1
    89    75    76    2
    90   128   127    1
    91   128   129    2
    92   131   132    1
    93   126   127    1
    94   125   123    1
    95   111   112    1
    96   111   110    1
    97    88    90    1
    98    88    87    2
    99   112   113    2
   100    86    87    1
   101    86    85    1
   102   132   133    1
   103   123   122    1
   104   123   124    1
   105   121   120    2
   106   122   119    1
   107    84    85    1
   108    84    81    1
   109   120   119    1
   110    72    70   am
   111    71    70    2
   112    80    81    1
   113   119   118    1
   114    70    69    1
   115    81    82    1
   116    82    83    2
   117    69    66    1
   118    60    61    1
   119    64    61    1
   120    66    67    1
   121    66    65    1
   122    63    62    2
   123    61    62    1
   124    68    67    2
