@<TRIPOS>MOLECULE
tmp/2vk7A00.pdb
 196 189 0 0 0
SMALL
GASTEIGER

@<TRIPOS>ATOM
      1  N         12.9060   10.8760    4.7530 N.3    24  ARG24      -0.1231
      2  CA        13.1810    9.5710    4.1760 C.3    24  ARG24       0.1694
      3  C         13.5560    8.6050    5.2910 C.2    24  ARG24       0.2591
      4  O         13.9480    9.0080    6.4050 O.2    24  ARG24      -0.2718
      5  CB        14.3340    9.6010    3.1890 C.3    24  ARG24       0.0321
      6  CG        13.9860   10.1170    1.7960 C.3    24  ARG24       0.0489
      7  CD        14.9040    9.5350    0.7470 C.3    24  ARG24       0.2205
      8  NE        14.6770    8.0940    0.6380 N.pl3  24  ARG24      -0.0865
      9  CZ        15.5660    7.2350    0.1160 C.cat  24  ARG24       0.5346
     10  NH1       16.6660    7.6840   -0.4860 N.pl3  24  ARG24       0.1354
     11  NH2       15.3070    5.9360    0.1520 N.pl3  24  ARG24       0.1354
     12  N         13.4960    7.3190    4.9690 N.am   25  ILE25      -0.1980
     13  CA        14.1420    6.2280    5.7340 C.3    25  ILE25       0.1595
     14  C         13.4080    5.8640    7.0060 C.2    25  ILE25       0.2287
     15  O         13.8390    6.1990    8.1160 O.2    25  ILE25      -0.2864
     16  CB        15.6590    6.4790    6.0460 C.3    25  ILE25       0.0276
     17  CG1       16.4180    7.1260    4.8790 C.3    25  ILE25       0.0022
     18  CG2       16.2790    5.1370    6.4420 C.3    25  ILE25       0.0022
     19  CD1       16.3300    6.3910    3.5640 C.3    25  ILE25       0.0001
     20  N         15.3400   15.3410    6.3460 N.3    43  ARG43      -0.1245
     21  CA        16.3180   15.8010    5.3530 C.3    43  ARG43       0.1563
     22  C         16.0280   17.2780    5.0370 C.2    43  ARG43       0.2260
     23  O         15.0130   17.5740    4.3880 O.2    43  ARG43      -0.2867
     24  CB        16.2710   14.8750    4.1320 C.3    43  ARG43       0.0307
     25  CG        16.6360   13.4360    4.4770 C.3    43  ARG43       0.0489
     26  CD        17.1260   12.6330    3.2920 C.3    43  ARG43       0.2205
     27  NE        17.5870   11.3270    3.7530 N.pl3  43  ARG43      -0.0865
     28  CZ        18.2120   10.4380    2.9800 C.cat  43  ARG43       0.5346
     29  NH1       18.4140   10.7260    1.6850 N.pl3  43  ARG43       0.1354
     30  NH2       18.6470    9.2930    3.5150 N.pl3  43  ARG43       0.1354
     31  N         21.0170   12.0690   -0.4290 N.3    49  ASP49      -0.1225
     32  CA        21.8140   11.4740    0.6440 C.3    49  ASP49       0.1805
     33  C         22.9790   12.4090    1.0350 C.2    49  ASP49       0.2597
     34  O         23.4740   13.2220    0.2310 O.2    49  ASP49      -0.2718
     35  CB        22.4460   10.1720    0.1390 C.3    49  ASP49       0.1424
     36  CG        21.4390    9.1340   -0.2880 C.2    49  ASP49       0.3668
     37  OD1       20.2600    9.1890    0.0980 O.co2  49  ASP49      -0.2456
     38  OD2       21.8940    8.2140   -1.0010 O.co2  49  ASP49      -0.2456
     39  N         23.5020   12.2180    2.2330 N.am   50  ALA50      -0.1979
     40  CA        24.8170   12.7640    2.6060 C.3    50  ALA50       0.1597
     41  C         25.8010   12.4000    1.4960 C.2    50  ALA50       0.2287
     42  O         25.7700   11.2930    0.9630 O.2    50  ALA50      -0.2864
     43  CB        25.2640   12.1590    3.9180 C.3    50  ALA50       0.0319
     44  N         22.0220    9.7030    9.3140 N.3    85  ILE85      -0.1231
     45  CA        21.2950    9.1420    8.1990 C.3    85  ILE85       0.1692
     46  C         21.1600    7.6440    8.4990 C.2    85  ILE85       0.2592
     47  O         22.1300    6.9950    8.8790 O.2    85  ILE85      -0.2718
     48  CB        22.0540    9.4290    6.8560 C.3    85  ILE85       0.0266
     49  CG1       21.4490    8.7030    5.6570 C.3    85  ILE85       0.0019
     50  CG2       23.5910    9.0970    6.9550 C.3    85  ILE85       0.0020
     51  CD1       21.8920    9.2640    4.3420 C.3    85  ILE85       0.0001
     52  N         19.9310    7.1340    8.3730 N.am   86  ASP86      -0.1974
     53  CA        19.5730    5.6990    8.4300 C.3    86  ASP86       0.1709
     54  C         19.4550    5.2050    9.8600 C.2    86  ASP86       0.2293
     55  O         20.4520    4.8140   10.4620 O.2    86  ASP86      -0.2864
     56  CB        20.5400    4.8250    7.6160 C.3    86  ASP86       0.1436
     57  CG        20.5650    5.1430    6.1430 C.2    86  ASP86       0.3671
     58  OD1       19.6070    5.7110    5.6150 O.co2  86  ASP86      -0.2456
     59  OD2       21.5990    4.7180    5.5190 O.co2  86  ASP86      -0.2456
     60  N         23.7460    6.1250   11.3730 N.3   103  THR103     -0.1218
     61  CA        25.0570    6.4310   10.8110 C.3   103  THR103      0.1862
     62  C         25.2750    7.9490   10.8290 C.2   103  THR103      0.2287
     63  O         24.3710    8.7290   10.5520 O.2   103  THR103     -0.2866
     64  CB        25.1550    5.9110    9.3530 C.3   103  THR103      0.1770
     65  OG1       24.7000    4.5540    9.3280 O.3   103  THR103     -0.2211
     66  CG2       26.5750    6.0070    8.8460 C.3   103  THR103      0.0375
     67  N         27.9700   11.1920    9.6950 N.3   105  PHE105     -0.1241
     68  CA        29.0940   11.6760    8.9020 C.3   105  PHE105      0.1605
     69  C         29.4010   13.1320    9.2450 C.2   105  PHE105      0.2264
     70  O         28.4860   13.9650    9.3050 O.2   105  PHE105     -0.2867
     71  CB        28.7660   11.6920    7.3960 C.3   105  PHE105      0.0534
     72  CG        28.5730   10.3250    6.7770 C.ar  105  PHE105     -0.0203
     73  CD1       29.6600    9.5520    6.3870 C.ar  105  PHE105     -0.0042
     74  CD2       27.2890    9.8020    6.6070 C.ar  105  PHE105     -0.0042
     75  CE1       29.4790    8.3110    5.7970 C.ar  105  PHE105     -0.0003
     76  CE2       27.1340    8.5430    6.0100 C.ar  105  PHE105     -0.0003
     77  CZ        28.2340    7.7920    5.6330 C.ar  105  PHE105     -0.0000
     78  N         28.4310    8.0140    2.0910 N.3   111  PHE111     -0.1227
     79  CA        28.7070    6.6110    1.8010 C.3   111  PHE111      0.1736
     80  C         29.9090    6.4470    0.8660 C.2   111  PHE111      0.2595
     81  O         30.7310    5.5640    1.0970 O.2   111  PHE111     -0.2718
     82  CB        27.4440    5.9860    1.1740 C.3   111  PHE111      0.0547
     83  CG        27.6610    4.5800    0.7060 C.ar  111  PHE111     -0.0202
     84  CD1       27.4890    3.4980    1.5190 C.ar  111  PHE111     -0.0042
     85  CD2       28.0790    4.3620   -0.5740 C.ar  111  PHE111     -0.0042
     86  CE1       27.7290    2.1560    0.9810 C.ar  111  PHE111     -0.0003
     87  CE2       28.2850    3.0840   -1.0880 C.ar  111  PHE111     -0.0003
     88  CZ        28.1570    2.0510   -0.2980 C.ar  111  PHE111     -0.0000
     89  N         30.0070    7.2450   -0.1950 N.am  112  TRP112     -0.1976
     90  CA        30.9400    6.9260   -1.2510 C.3   112  TRP112      0.1640
     91  C         32.3400    7.4290   -0.9770 C.2   112  TRP112      0.2290
     92  O         33.2890    6.8730   -1.4920 O.2   112  TRP112     -0.2864
     93  CB        30.4370    7.5100   -2.5800 C.3   112  TRP112      0.0576
     94  CG        29.1980    6.7890   -3.0550 C.ar  112  TRP112      0.0006
     95  CD1       27.9070    7.2180   -2.9530 C.ar  112  TRP112      0.0946
     96  CD2       29.1370    5.4450   -3.5970 C.ar  112  TRP112      0.0152
     97  NE1       27.0420    6.2330   -3.4460 N.ar  112  TRP112     -0.2442
     98  CE2       27.7730    5.1410   -3.8450 C.ar  112  TRP112      0.0810
     99  CE3       30.1170    4.4630   -3.8620 C.ar  112  TRP112      0.0012
    100  CZ2       27.3570    3.8880   -4.3880 C.ar  112  TRP112      0.0191
    101  CZ3       29.7060    3.2180   -4.4230 C.ar  112  TRP112      0.0001
    102  CH2       28.3440    2.9510   -4.6740 C.ar  112  TRP112      0.0015
    103  N         33.1090    2.5870    4.5450 N.3   218  PHE218     -0.1241
    104  CA        31.8080    2.8200    5.1360 C.3   218  PHE218      0.1605
    105  C         31.4660    1.6630    6.0720 C.2   218  PHE218      0.2264
    106  O         31.6400    0.5130    5.6880 O.2   218  PHE218     -0.2867
    107  CB        30.7710    2.9360    4.0170 C.3   218  PHE218      0.0534
    108  CG        29.3380    2.9310    4.4790 C.ar  218  PHE218     -0.0203
    109  CD1       28.7210    4.0960    4.9440 C.ar  218  PHE218     -0.0042
    110  CD2       28.6010    1.7420    4.4310 C.ar  218  PHE218     -0.0042
    111  CE1       27.3960    4.0750    5.3070 C.ar  218  PHE218     -0.0003
    112  CE2       27.2680    1.7420    4.7880 C.ar  218  PHE218     -0.0003
    113  CZ        26.6420    2.8990    5.2040 C.ar  218  PHE218     -0.0000
    114  N         25.9210   -2.7790    7.3390 N.3   243  TYR243     -0.1241
    115  CA        26.6720   -3.1960    6.1470 C.3   243  TYR243      0.1605
    116  C         27.8630   -2.2730    6.0100 C.2   243  TYR243      0.2264
    117  O         27.8800   -1.1640    6.5760 O.2   243  TYR243     -0.2867
    118  CB        25.7890   -3.2400    4.8860 C.3   243  TYR243      0.0534
    119  CG        25.2600   -1.9180    4.3920 C.ar  243  TYR243     -0.0201
    120  CD1       25.5540   -1.4700    3.1140 C.ar  243  TYR243     -0.0009
    121  CD2       24.4110   -1.1250    5.1790 C.ar  243  TYR243     -0.0009
    122  CE1       25.0180   -0.2750    2.5960 C.ar  243  TYR243      0.0417
    123  CE2       23.8710    0.0900    4.6740 C.ar  243  TYR243      0.0417
    124  CZ        24.1960    0.4920    3.3970 C.ar  243  TYR243      0.1957
    125  OH        23.6560    1.6380    2.8630 O.3   243  TYR243     -0.2866
    126  N         30.3960   -3.7650   -1.1380 N.3   251  GLN251     -0.1245
    127  CA        29.5080   -3.8220    0.0300 C.3   251  GLN251      0.1566
    128  C         29.2160   -5.2450    0.4930 C.2   251  GLN251      0.2260
    129  O         28.9440   -6.1650   -0.3250 O.2   251  GLN251     -0.2867
    130  CB        28.1570   -3.2280   -0.3400 C.3   251  GLN251      0.0367
    131  CG        28.2240   -1.7200   -0.6680 C.3   251  GLN251      0.0905
    132  CD        26.9360   -1.2560   -1.2800 C.2   251  GLN251      0.2608
    133  OE1       26.0100   -0.9140   -0.5750 O.2   251  GLN251     -0.2717
    134  NE2       26.8060   -1.4380   -2.6050 N.am  251  GLN251     -0.0878
    135  N         23.9610   -5.8670    0.9030 N.3   296  THR296     -0.1203
    136  CA        24.0030   -4.5030    1.3930 C.3   296  THR296      0.1994
    137  C         23.0580   -4.3530    2.5850 C.2   296  THR296      0.2617
    138  O         23.2280   -5.0620    3.5700 O.2   296  THR296     -0.2717
    139  CB        23.8720   -3.4640    0.2230 C.3   296  THR296      0.1784
    140  OG1       22.5080   -3.1930   -0.0870 O.3   296  THR296     -0.2211
    141  CG2       24.6210   -3.9090   -1.0050 C.3   296  THR296      0.0376
    142  N         22.1100   -3.4300    2.5420 N.am  297  GLU297     -0.1979
    143  CA        21.1770   -3.2850    3.6580 C.3   297  GLU297      0.1602
    144  C         20.4640   -4.6110    3.8860 C.2   297  GLU297      0.2287
    145  O         20.2710   -5.3850    2.9670 O.2   297  GLU297     -0.2864
    146  CB        20.1230   -2.2270    3.3480 C.3   297  GLU297      0.0415
    147  CG        20.6930   -0.8160    3.2150 C.3   297  GLU297      0.1163
    148  CD        19.6950    0.1040    2.5670 C.2   297  GLU297      0.3649
    149  OE1       18.9400   -0.3280    1.6700 O.co2 297  GLU297     -0.2457
    150  OE2       19.6680    1.2840    2.9370 O.co2 297  GLU297     -0.2457
    151  N         19.3310   -6.8960    0.7450 N.3   313  ARG313     -0.1245
    152  CA        19.4120   -6.1960   -0.5370 C.3   313  ARG313      0.1563
    153  C         20.6700   -6.6130   -1.2680 C.2   313  ARG313      0.2260
    154  O         21.7290   -6.8430   -0.6550 O.2   313  ARG313     -0.2867
    155  CB        19.4020   -4.6790   -0.1970 C.3   313  ARG313      0.0307
    156  CG        19.5990   -3.7340   -1.3830 C.3   313  ARG313      0.0489
    157  CD        19.5450   -2.3070   -0.9450 C.3   313  ARG313      0.2205
    158  NE        19.8690   -1.4050   -2.0490 N.pl3 313  ARG313     -0.0865
    159  CZ        19.8420   -0.0740   -1.9700 C.cat 313  ARG313      0.5346
    160  NH1       19.3200    0.5260   -0.8990 N.pl3 313  ARG313      0.1354
    161  NH2       20.2260    0.6490   -3.0030 N.pl3 313  ARG313      0.1354
    162  N         16.8540   -3.7560   -5.7440 N.3   345  TYR345     -0.1241
    163  CA        18.0070   -3.0410   -5.1530 C.3   345  TYR345      0.1605
    164  C         17.4910   -1.8870   -4.2900 C.2   345  TYR345      0.2264
    165  O         17.7120   -0.7020   -4.5470 O.2   345  TYR345     -0.2867
    166  CB        19.0580   -2.6120   -6.1980 C.3   345  TYR345      0.0534
    167  CG        20.4020   -2.2360   -5.6150 C.ar  345  TYR345     -0.0201
    168  CD1       21.0840   -3.1070   -4.7420 C.ar  345  TYR345     -0.0009
    169  CD2       21.0000   -1.0150   -5.9270 C.ar  345  TYR345     -0.0009
    170  CE1       22.3090   -2.7660   -4.1880 C.ar  345  TYR345      0.0417
    171  CE2       22.2640   -0.6660   -5.3660 C.ar  345  TYR345      0.0417
    172  CZ        22.8930   -1.5560   -4.5250 C.ar  345  TYR345      0.1957
    173  OH        24.0990   -1.2220   -3.9300 O.3   345  TYR345     -0.2866
    174  N         11.2620    0.6520   -7.7580 N.3   373  ARG373     -0.1245
    175  CA        10.6930    0.9560   -6.4520 C.3   373  ARG373      0.1563
    176  C          9.2160    1.2840   -6.6200 C.2   373  ARG373      0.2260
    177  O          8.8030    2.4420   -6.6280 O.2   373  ARG373     -0.2867
    178  CB        11.4950    2.0770   -5.8030 C.3   373  ARG373      0.0307
    179  CG        12.8850    1.6130   -5.4920 C.3   373  ARG373      0.0489
    180  CD        13.7980    2.6800   -4.9210 C.3   373  ARG373      0.2205
    181  NE        15.1350    2.1120   -4.6640 N.pl3 373  ARG373     -0.0865
    182  CZ        16.0400    2.6780   -3.8670 C.cat 373  ARG373      0.5346
    183  NH1       15.7500    3.8230   -3.2270 N.pl3 373  ARG373      0.1354
    184  NH2       17.1990    2.0800   -3.6560 N.pl3 373  ARG373      0.1354
    185  N         11.7860    2.5250    0.6350 N.3   413  TYR413     -0.1241
    186  CA        12.1030    1.9270    1.9350 C.3   413  TYR413      0.1605
    187  C         10.8410    1.7920    2.8020 C.2   413  TYR413      0.2264
    188  O          9.8750    2.5540    2.6460 O.2   413  TYR413     -0.2867
    189  CB        13.1500    2.7540    2.6820 C.3   413  TYR413      0.0534
    190  CG        14.5630    2.7250    2.1550 C.ar  413  TYR413     -0.0201
    191  CD1       14.8870    2.5870    0.7730 C.ar  413  TYR413     -0.0009
    192  CD2       15.6130    2.8460    3.0700 C.ar  413  TYR413     -0.0009
    193  CE1       16.2470    2.6010    0.3540 C.ar  413  TYR413      0.0417
    194  CE2       16.9610    2.8810    2.6340 C.ar  413  TYR413      0.0417
    195  CZ        17.2490    2.7440    1.2960 C.ar  413  TYR413      0.1957
    196  OH        18.5870    2.7990    0.8740 O.3   413  TYR413     -0.2866
@<TRIPOS>BOND
     1   174   175    1
     2   177   176    2
     3   176   175    1
     4   175   178    1
     5   166   167    1
     6   166   163    1
     7   169   167   ar
     8   169   171   ar
     9   178   179    1
    10   162   163    1
    11   167   168   ar
    12   179   180    1
    13   171   172   ar
    14   163   164    1
    15   180   181    1
    16   168   170   ar
    17   102   101   ar
    18   102   100   ar
    19   181   182    2
    20   165   164    2
    21   172   170   ar
    22   172   173    1
    23   101    99   ar
    24   100    98   ar
    25   182   184    1
    26   182   183    1
    27    99    96   ar
    28    98    96   ar
    29    98    97   ar
    30    96    94   ar
    31    97    95   ar
    32    94    95   ar
    33    94    93    1
    34   161   159    1
    35   134   132   am
    36    93    90    1
    37   158   159    2
    38   158   157    1
    39   159   160    1
    40    92    91    2
    41   156   157    1
    42   156   155    1
    43   132   131    1
    44   132   133    2
    45   153   154    2
    46   153   152    1
    47    90    91    1
    48    90    89    1
    49   126   127    1
    50    87    85   ar
    51    87    88   ar
    52   141   139    1
    53    38    36   ar
    54   131   130    1
    55    85    83   ar
    56   152   155    1
    57   152   151    1
    58    10     9    1
    59    31    32    1
    60   130   127    1
    61   129   128    2
    62    88    86   ar
    63    36    37   ar
    64    36    35    1
    65    89    80   am
    66   140   139    1
    67   127   128    1
    68     9    11    1
    69     9     8    2
    70    35    32    1
    71   139   136    1
    72    34    33    2
    73   193   191   ar
    74   193   195   ar
    75   185   186    1
    76     8     7    1
    77    32    33    1
    78    83    82    1
    79    83    84   ar
    80     7     6    1
    81   191   190   ar
    82    80    81    2
    83    80    79    1
    84   196   195    1
    85   135   136    1
    86    42    41    2
    87    86    84   ar
    88    33    39   am
    89    82    79    1
    90   195   194   ar
    91   136   137    1
    92    41    40    1
    93   149   148   ar
    94    29    28    1
    95     6     5    1
    96    79    78    1
    97   186   189    1
    98   186   187    1
    99   190   189    1
   100   190   192   ar
   101    39    40    1
   102   142   137   am
   103   142   143    1
   104   148   150   ar
   105   148   147    1
   106   137   138    2
   107   122   120   ar
   108   122   124   ar
   109    40    43    1
   110   194   192   ar
   111   188   187    2
   112   125   124    1
   113   145   144    2
   114    28    30    1
   115    28    27    2
   116   120   119   ar
   117     5     2    1
   118   147   146    1
   119    26    27    1
   120    26    25    1
   121   146   143    1
   122   124   123   ar
   123    19    17    1
   124   143   144    1
   125   107   108    1
   126   107   104    1
   127    24    25    1
   128    24    21    1
   129     2     1    1
   130     2     3    1
   131    51    49    1
   132    23    22    2
   133   119   118    1
   134   119   121   ar
   135   110   108   ar
   136   110   112   ar
   137   108   109   ar
   138   103   104    1
   139   123   121   ar
   140   112   113   ar
   141    17    16    1
   142   118   115    1
   143   109   111   ar
   144    12     3   am
   145    12    13    1
   146    22    21    1
   147   104   105    1
   148   113   111   ar
   149     3     4    2
   150    21    20    1
   151    59    57   ar
   152    58    57   ar
   153    77    75   ar
   154    77    76   ar
   155    49    48    1
   156   106   105    2
   157    13    16    1
   158    13    14    1
   159    75    73   ar
   160    76    74   ar
   161   116   115    1
   162   116   117    2
   163    16    18    1
   164    57    56    1
   165   115   114    1
   166    73    72   ar
   167    74    72   ar
   168    72    71    1
   169    48    50    1
   170    48    45    1
   171    14    15    2
   172    71    68    1
   173    56    53    1
   174    45    46    1
   175    45    44    1
   176    52    53    1
   177    52    46   am
   178    53    54    1
   179    46    47    2
   180    66    64    1
   181    68    69    1
   182    68    67    1
   183    69    70    2
   184    65    64    1
   185    64    61    1
   186    54    55    2
   187    63    62    2
   188    61    62    1
   189    61    60    1
