@<TRIPOS>MOLECULE
tmp/2vkdA00.pdb
 223 216 0 0 0
SMALL
GASTEIGER

@<TRIPOS>ATOM
      1  N         25.5320   21.4760   38.6640 N.3   101  ILE101     -0.1231
      2  CA        26.1050   22.8120   38.6700 C.3   101  ILE101      0.1692
      3  C         24.9970   23.8200   38.9020 C.2   101  ILE101      0.2592
      4  O         23.9880   23.8000   38.2030 O.2   101  ILE101     -0.2718
      5  CB        26.8080   23.1400   37.3180 C.3   101  ILE101      0.0266
      6  CG1       28.0060   22.2100   37.0900 C.3   101  ILE101      0.0019
      7  CG2       27.2330   24.6160   37.2460 C.3   101  ILE101      0.0020
      8  CD1       28.6700   22.3450   35.7240 C.3   101  ILE101      0.0001
      9  N         25.1700   24.6720   39.9120 N.am  102  TRP102     -0.1962
     10  CA        24.3910   25.8990   39.9850 C.3   102  TRP102      0.1771
     11  C         25.2610   27.0970   40.3450 C.2   102  TRP102      0.2619
     12  O         25.8220   27.1760   41.4430 O.2   102  TRP102     -0.2715
     13  CB        23.1660   25.8110   40.9050 C.3   102  TRP102      0.0590
     14  CG        22.2760   27.0060   40.6760 C.ar  102  TRP102      0.0006
     15  CD1       22.3120   28.1950   41.3460 C.ar  102  TRP102      0.0946
     16  CD2       21.2760   27.1500   39.6570 C.ar  102  TRP102      0.0152
     17  NE1       21.3740   29.0600   40.8250 N.ar  102  TRP102     -0.2442
     18  CE2       20.7280   28.4420   39.7870 C.ar  102  TRP102      0.0810
     19  CE3       20.7810   26.3060   38.6540 C.ar  102  TRP102      0.0012
     20  CZ2       19.7100   28.9090   38.9520 C.ar  102  TRP102      0.0191
     21  CZ3       19.7670   26.7730   37.8270 C.ar  102  TRP102      0.0001
     22  CH2       19.2430   28.0620   37.9830 C.ar  102  TRP102      0.0015
     23  N         25.3340   28.0360   39.4060 N.am  103  ILE103     -0.1977
     24  CA        26.2170   29.1800   39.5170 C.3   103  ILE103      0.1596
     25  C         25.5190   30.4640   39.0950 C.2   103  ILE103      0.2287
     26  O         24.5840   30.4440   38.2910 O.2   103  ILE103     -0.2864
     27  CB        27.4770   28.9930   38.6430 C.3   103  ILE103      0.0276
     28  CG1       27.0910   28.5090   37.2350 C.3   103  ILE103      0.0022
     29  CG2       28.4690   28.0460   39.3270 C.3   103  ILE103      0.0022
     30  CD1       28.1860   28.6170   36.2150 C.3   103  ILE103      0.0001
     31  N         23.4030   36.7410   37.9930 N.3   139  ASN139     -0.1240
     32  CA        21.9910   36.8820   37.6270 C.3   139  ASN139      0.1653
     33  C         21.3970   38.2000   38.0720 C.2   139  ASN139      0.2266
     34  O         20.6660   38.8400   37.3220 O.2   139  ASN139     -0.2867
     35  CB        21.1640   35.7140   38.1460 C.3   139  ASN139      0.1155
     36  CG        21.4000   34.4500   37.3570 C.2   139  ASN139      0.2627
     37  OD1       21.4250   34.4690   36.1260 O.2   139  ASN139     -0.2716
     38  ND2       21.5780   33.3420   38.0570 N.am  139  ASN139     -0.0877
     39  N         25.0720   31.6560   32.1270 N.3   265  LEU265     -0.1231
     40  CA        25.3790   30.6500   33.1230 C.3   265  LEU265      0.1693
     41  C         25.3060   29.2430   32.5500 C.2   265  LEU265      0.2591
     42  O         25.9990   28.3470   33.0300 O.2   265  LEU265     -0.2718
     43  CB        24.4690   30.8060   34.3320 C.3   265  LEU265      0.0284
     44  CG        24.6790   32.0710   35.1740 C.3   265  LEU265      0.0019
     45  CD1       26.1590   32.2710   35.4800 C.3   265  LEU265      0.0001
     46  CD2       24.0990   33.3130   34.5180 C.3   265  LEU265      0.0001
     47  N         24.4860   29.0650   31.5110 N.am  266  ALA266     -0.1980
     48  CA        24.3730   27.7790   30.8250 C.3   266  ALA266      0.1597
     49  C         25.6540   27.4720   30.0760 C.2   266  ALA266      0.2287
     50  O         26.1440   26.3440   30.1300 O.2   266  ALA266     -0.2864
     51  CB        23.2070   27.7650   29.8910 C.3   266  ALA266      0.0319
     52  N         28.2860   26.7480   32.4380 N.3   269  SER269     -0.1202
     53  CA        28.0520   25.4160   32.9750 C.3   269  SER269      0.2020
     54  C         28.4730   24.3080   31.9770 C.2   269  SER269      0.2618
     55  O         29.0830   23.3060   32.3800 O.2   269  SER269     -0.2717
     56  CB        26.5960   25.2810   33.4300 C.3   269  SER269      0.2103
     57  OG        26.3920   24.0580   34.1010 O.3   269  SER269     -0.2182
     58  N         28.1700   24.5000   30.6880 N.am  270  ASP270     -0.1973
     59  CA        28.6980   23.6360   29.6300 C.3   270  ASP270      0.1709
     60  C         30.2100   23.4480   29.7680 C.2   270  ASP270      0.2293
     61  O         30.7230   22.3280   29.6790 O.2   270  ASP270     -0.2864
     62  CB        28.4430   24.2400   28.2510 C.3   270  ASP270      0.1436
     63  CG        27.0000   24.1910   27.8300 C.2   270  ASP270      0.3671
     64  OD1       26.2770   23.2360   28.1820 O.co2 270  ASP270     -0.2456
     65  OD2       26.6020   25.1180   27.0960 O.co2 270  ASP270     -0.2456
     66  N         31.1630   21.5390   33.2990 N.3   273  ARG273     -0.1245
     67  CA        30.7740   20.1380   33.4170 C.3   273  ARG273      0.1563
     68  C         31.7990   19.2140   32.7610 C.2   273  ARG273      0.2260
     69  O         32.2220   18.2380   33.3790 O.2   273  ARG273     -0.2867
     70  CB        29.3350   19.8820   32.9180 C.3   273  ARG273      0.0307
     71  CG        29.1190   19.9880   31.4050 C.3   273  ARG273      0.0489
     72  CD        27.6580   19.9090   31.0330 C.3   273  ARG273      0.2205
     73  NE        26.9580   21.1340   31.3870 N.pl3 273  ARG273     -0.0865
     74  CZ        25.7070   21.4250   31.0420 C.cat 273  ARG273      0.5346
     75  NH1       24.9820   20.5790   30.3110 N.pl3 273  ARG273      0.1354
     76  NH2       25.1870   22.5830   31.4270 N.pl3 273  ARG273      0.1354
     77  N         27.1530   13.5070   34.9180 N.3   284  TYR284     -0.1241
     78  CA        26.6630   14.8650   35.0690 C.3   284  TYR284      0.1605
     79  C         25.1840   14.9660   34.7130 C.2   284  TYR284      0.2264
     80  O         24.7170   14.3420   33.7640 O.2   284  TYR284     -0.2867
     81  CB        27.4630   15.8810   34.2430 C.3   284  TYR284      0.0534
     82  CG        26.7400   17.2130   34.1970 C.ar  284  TYR284     -0.0201
     83  CD1       26.9460   18.1650   35.1960 C.ar  284  TYR284     -0.0009
     84  CD2       25.7960   17.4880   33.2030 C.ar  284  TYR284     -0.0009
     85  CE1       26.2610   19.3730   35.1920 C.ar  284  TYR284      0.0417
     86  CE2       25.0920   18.6930   33.2000 C.ar  284  TYR284      0.0417
     87  CZ        25.3420   19.6300   34.1980 C.ar  284  TYR284      0.1957
     88  OH        24.6740   20.8190   34.2170 O.3   284  TYR284     -0.2866
     89  N         21.7680   17.9290   34.6300 N.3   286  ASP286     -0.1225
     90  CA        21.1540   19.2140   34.8800 C.3   286  ASP286      0.1805
     91  C         20.2200   19.0680   36.0800 C.2   286  ASP286      0.2598
     92  O         19.7060   17.9790   36.3720 O.2   286  ASP286     -0.2718
     93  CB        20.3620   19.6820   33.6610 C.3   286  ASP286      0.1424
     94  CG        21.2280   20.3820   32.6070 C.2   286  ASP286      0.3668
     95  OD1       22.4060   20.7450   32.8840 O.co2 286  ASP286     -0.2456
     96  OD2       20.6940   20.5760   31.4920 O.co2 286  ASP286     -0.2456
     97  N         20.0090   20.1790   36.7720 N.am  287  VAL287     -0.1966
     98  CA        19.2280   20.1850   37.9870 C.3   287  VAL287      0.1727
     99  C         17.7290   20.0050   37.7270 C.2   287  VAL287      0.2616
    100  O         16.9510   19.8700   38.6720 O.2   287  VAL287     -0.2715
    101  CB        19.4850   21.4610   38.8060 C.3   287  VAL287      0.0290
    102  CG1       20.9680   21.5480   39.2160 C.3   287  VAL287      0.0023
    103  CG2       19.0320   22.7030   38.0410 C.3   287  VAL287      0.0023
    104  N         17.3290   19.9850   36.4560 N.am  288  ASP288     -0.1971
    105  CA        15.9390   19.7110   36.1170 C.3   288  ASP288      0.1709
    106  C         15.7050   18.2840   35.6090 C.2   288  ASP288      0.2293
    107  O         14.6410   17.9770   35.0700 O.2   288  ASP288     -0.2864
    108  CB        15.3640   20.7730   35.1630 C.3   288  ASP288      0.1436
    109  CG        16.1630   20.9310   33.8730 C.2   288  ASP288      0.3671
    110  OD1       17.1680   20.2200   33.6660 O.co2 288  ASP288     -0.2456
    111  OD2       15.7730   21.7910   33.0600 O.co2 288  ASP288     -0.2456
    112  N         21.7980   15.5480   23.3630 N.3   383  ILE383     -0.1231
    113  CA        21.6190   16.7110   24.2090 C.3   383  ILE383      0.1692
    114  C         22.4410   16.4540   25.4650 C.2   383  ILE383      0.2592
    115  O         22.3800   15.3680   26.0360 O.2   383  ILE383     -0.2718
    116  CB        20.1190   16.9820   24.5180 C.3   383  ILE383      0.0266
    117  CG1       19.9350   18.3600   25.1620 C.3   383  ILE383      0.0019
    118  CG2       19.5120   15.8540   25.3580 C.3   383  ILE383      0.0020
    119  CD1       18.5120   18.8390   25.1720 C.3   383  ILE383      0.0001
    120  N         23.2220   17.4490   25.8740 N.am  384  ASN384     -0.1960
    121  CA        24.2170   17.2750   26.9230 C.3   384  ASN384      0.1819
    122  C         23.6970   17.6040   28.3260 C.2   384  ASN384      0.2621
    123  O         24.4800   17.9270   29.2240 O.2   384  ASN384     -0.2715
    124  CB        25.4770   18.0970   26.6090 C.3   384  ASN384      0.1195
    125  CG        25.2520   19.5860   26.7460 C.2   384  ASN384      0.2630
    126  OD1       24.1550   20.0900   26.4980 O.2   384  ASN384     -0.2716
    127  ND2       26.2960   20.3050   27.1440 N.am  384  ASN384     -0.0877
    128  N         22.3810   17.5260   28.5030 N.am  385  GLN385     -0.1977
    129  CA        21.7690   17.7330   29.8080 C.3   385  GLN385      0.1601
    130  C         22.1000   16.5740   30.7490 C.2   385  GLN385      0.2287
    131  O         21.8030   16.6350   31.9430 O.2   385  GLN385     -0.2864
    132  CB        20.2510   17.9270   29.6810 C.3   385  GLN385      0.0394
    133  CG        19.5030   16.7430   29.0750 C.3   385  GLN385      0.0908
    134  CD        18.0550   17.0600   28.7170 C.2   385  GLN385      0.2608
    135  OE1       17.5450   18.1420   29.0150 O.2   385  GLN385     -0.2717
    136  NE2       17.3830   16.1050   28.0690 N.am  385  GLN385     -0.0878
    137  N         20.8250   30.8110   19.4680 N.3   463  ARG463     -0.1245
    138  CA        21.2480   29.4410   19.7530 C.3   463  ARG463      0.1563
    139  C         22.7510   29.1970   19.5910 C.2   463  ARG463      0.2260
    140  O         23.1710   28.0550   19.3860 O.2   463  ARG463     -0.2867
    141  CB        20.4760   28.4650   18.8470 C.3   463  ARG463      0.0307
    142  CG        18.9750   28.7290   18.7310 C.3   463  ARG463      0.0489
    143  CD        18.2300   28.3440   20.0120 C.3   463  ARG463      0.2205
    144  NE        18.0200   26.8970   20.0950 N.pl3 463  ARG463     -0.0865
    145  CZ        17.7740   26.2270   21.2210 C.cat 463  ARG463      0.5346
    146  NH1       17.7130   26.8620   22.3870 N.pl3 463  ARG463      0.1354
    147  NH2       17.5980   24.9110   21.1790 N.pl3 463  ARG463      0.1354
    148  N         25.2690   29.2490   21.7630 N.3   465  THR465     -0.1203
    149  CA        25.8180   28.4140   22.8430 C.3   465  THR465      0.1994
    150  C         25.8700   26.9300   22.4910 C.2   465  THR465      0.2617
    151  O         26.8100   26.2250   22.8690 O.2   465  THR465     -0.2717
    152  CB        25.0300   28.6060   24.1560 C.3   465  THR465      0.1784
    153  OG1       24.7630   30.0010   24.3500 O.3   465  THR465     -0.2211
    154  CG2       25.8200   28.0970   25.3380 C.3   465  THR465      0.0376
    155  N         24.8680   26.4700   21.7510 N.am  466  ILE466     -0.1979
    156  CA        24.7780   25.0700   21.3490 C.3   466  ILE466      0.1595
    157  C         26.0080   24.6110   20.5630 C.2   466  ILE466      0.2287
    158  O         26.4720   23.4800   20.7320 O.2   466  ILE466     -0.2864
    159  CB        23.4720   24.8170   20.5530 C.3   466  ILE466      0.0276
    160  CG1       22.3140   24.6150   21.5280 C.3   466  ILE466      0.0022
    161  CG2       23.5990   23.6150   19.6140 C.3   466  ILE466      0.0022
    162  CD1       20.9910   25.0570   20.9780 C.3   466  ILE466      0.0001
    163  N         27.8880   23.5230   23.7940 N.3   470  GLY470     -0.1210
    164  CA        26.8280   22.5510   24.0130 C.3   470  GLY470      0.1940
    165  C         26.8340   21.3510   23.0890 C.2   470  GLY470      0.2453
    166  O         27.8960   20.9180   22.6300 O.2   470  GLY470     -0.2732
    167  N         25.6370   20.8040   22.7980 N.am  471  PRO471     -0.2728
    168  CA        25.5160   19.5620   22.0320 C.3   471  PRO471      0.1401
    169  C         26.4660   19.4570   20.8490 C.2   471  PRO471      0.2269
    170  O         27.0850   18.4120   20.6640 O.2   471  PRO471     -0.2865
    171  CB        24.0540   19.5720   21.5800 C.3   471  PRO471      0.0296
    172  CG        23.3480   20.2630   22.6850 C.3   471  PRO471      0.0237
    173  CD        24.3100   21.3230   23.1970 C.3   471  PRO471      0.0939
    174  N         12.1960   20.9780   33.0600 N.3   515  GLU515     -0.1245
    175  CA        12.8340   20.9220   31.7320 C.3   515  GLU515      0.1567
    176  C         12.0500   21.6730   30.6570 C.2   515  GLU515      0.2260
    177  O         12.6470   22.2430   29.7490 O.2   515  GLU515     -0.2867
    178  CB        13.1240   19.4720   31.2870 C.3   515  GLU515      0.0388
    179  CG        13.8030   19.2820   29.8840 C.3   515  GLU515      0.1160
    180  CD        15.0510   20.1640   29.6270 C.2   515  GLU515      0.3649
    181  OE1       15.7550   20.5660   30.5800 O.co2 515  GLU515     -0.2457
    182  OE2       15.3330   20.4570   28.4460 O.co2 515  GLU515     -0.2457
    183  N         10.8730   24.4700   30.7110 N.3   517  THR517     -0.1203
    184  CA        11.3430   25.8540   30.6490 C.3   517  THR517      0.1994
    185  C         12.8710   25.9580   30.5300 C.2   517  THR517      0.2619
    186  O         13.6100   25.1460   31.0920 O.2   517  THR517     -0.2717
    187  CB        10.7740   26.7390   31.8150 C.3   517  THR517      0.1784
    188  OG1       11.1170   28.1170   31.6000 O.3   517  THR517     -0.2211
    189  CG2       11.2820   26.2790   33.1980 C.3   517  THR517      0.0376
    190  N         13.3200   26.9580   29.7710 N.am  518  SER518     -0.1937
    191  CA        14.7380   27.2270   29.5380 C.3   518  SER518      0.2055
    192  C         15.1030   28.5470   30.1950 C.2   518  SER518      0.2643
    193  O         14.2860   29.4620   30.2530 O.2   518  SER518     -0.2714
    194  CB        15.0300   27.2930   28.0370 C.3   518  SER518      0.2130
    195  OG        16.4010   27.5610   27.7840 O.3   518  SER518     -0.2179
    196  N         16.3330   28.6470   30.6880 N.am  519  LEU519     -0.1963
    197  CA        16.7530   29.8240   31.4490 C.3   519  LEU519      0.1728
    198  C         17.8550   30.6350   30.7500 C.2   519  LEU519      0.2616
    199  O         18.1600   31.7660   31.1490 O.2   519  LEU519     -0.2715
    200  CB        17.1580   29.4200   32.8830 C.3   519  LEU519      0.0311
    201  CG        16.1380   28.6140   33.7100 C.3   519  LEU519      0.0022
    202  CD1       16.7880   27.9920   34.9380 C.3   519  LEU519      0.0001
    203  CD2       14.9160   29.4420   34.1110 C.3   519  LEU519      0.0001
    204  N         18.4370   30.0670   29.6970 N.am  520  TRP520     -0.1960
    205  CA        19.4520   30.7820   28.9310 C.3   520  TRP520      0.1771
    206  C         18.9180   31.3070   27.6010 C.2   520  TRP520      0.2620
    207  O         19.5040   32.2140   27.0070 O.2   520  TRP520     -0.2715
    208  CB        20.6830   29.9040   28.7170 C.3   520  TRP520      0.0590
    209  CG        20.4790   28.7940   27.7510 C.ar  520  TRP520      0.0006
    210  CD1       19.9700   27.5580   28.0170 C.ar  520  TRP520      0.0946
    211  CD2       20.7890   28.8120   26.3540 C.ar  520  TRP520      0.0152
    212  NE1       19.9380   26.8030   26.8710 N.ar  520  TRP520     -0.2442
    213  CE2       20.4340   27.5500   25.8330 C.ar  520  TRP520      0.0810
    214  CE3       21.3290   29.7750   25.4890 C.ar  520  TRP520      0.0012
    215  CZ2       20.6050   27.2220   24.4830 C.ar  520  TRP520      0.0191
    216  CZ3       21.4970   29.4500   24.1490 C.ar  520  TRP520      0.0001
    217  CH2       21.1370   28.1840   23.6600 C.ar  520  TRP520      0.0015
    218  N         17.8040   30.7290   27.1490 N.am  521  SER521     -0.1950
    219  CA        17.1990   31.0770   25.8640 C.3   521  SER521      0.1924
    220  C         15.6710   31.1350   25.9440 C.2   521  SER521      0.2314
    221  O         15.0770   30.7250   26.9480 O.2   521  SER521     -0.2863
    222  CB        17.6210   30.0570   24.8050 C.3   521  SER521      0.2116
    223  OG        17.2010   28.7490   25.1610 O.3   521  SER521     -0.2180
@<TRIPOS>BOND
     1   142   141    1
     2   142   143    1
     3   141   138    1
     4   140   139    2
     5   137   138    1
     6   139   138    1
     7   161   159    1
     8   143   144    1
     9   144   145    2
    10   159   156    1
    11   159   160    1
    12   157   158    2
    13   157   156    1
    14   170   169    2
    15   169   168    1
    16   162   160    1
    17   147   145    1
    18   145   146    1
    19   156   155    1
    20   171   168    1
    21   171   172    1
    22   155   150   am
    23   148   149    1
    24   168   167    1
    25   150   149    1
    26   150   151    2
    27   166   165    2
    28   172   173    1
    29   167   165   am
    30   167   173    1
    31   149   152    1
    32   165   164    1
    33   112   113    1
    34   217   216   ar
    35   217   215   ar
    36   163   164    1
    37   216   214   ar
    38   152   153    1
    39   152   154    1
    40   113   116    1
    41   113   114    1
    42   215   213   ar
    43   116   117    1
    44   116   118    1
    45   222   223    1
    46   222   219    1
    47   117   119    1
    48   114   120   am
    49   114   115    2
    50   214   211   ar
    51   213   211   ar
    52   213   212   ar
    53   219   220    1
    54   219   218    1
    55   120   121    1
    56   220   221    2
    57   211   209   ar
    58   126   125    2
    59   124   125    1
    60   124   121    1
    61   125   127   am
    62   212   210   ar
    63   121   122    1
    64   207   206    2
    65    65    63   ar
    66   218   206   am
    67   206   205    1
    68   209   210   ar
    69   209   208    1
    70   195   194    1
    71    63    64   ar
    72    63    62    1
    73   194   191    1
    74   136   134   am
    75    62    59    1
    76   122   128   am
    77   122   123    2
    78   182   180   ar
    79   128   129    1
    80   208   205    1
    81   134   135    2
    82   134   133    1
    83   205   204    1
    84   133   132    1
    85   191   190    1
    86   191   192    1
    87   180   179    1
    88   180   181   ar
    89    59    60    1
    90    59    58    1
    91    61    60    2
    92   132   129    1
    93   204   198   am
    94   177   176    2
    95   190   185   am
    96   129   130    1
    97   179   178    1
    98    51    48    1
    99    49    50    2
   100    49    48    1
   101   192   193    2
   102   192   196   am
   103    75    74    1
   104   185   184    1
   105   185   186    2
   106   184   183    1
   107   184   187    1
   108   176   175    1
   109    58    54   am
   110   196   197    1
   111   130   131    2
   112   198   199    2
   113   198   197    1
   114    48    47    1
   115    72    73    1
   116    72    71    1
   117    74    73    2
   118    74    76    1
   119   178   175    1
   120    71    70    1
   121   197   200    1
   122    96    94   ar
   123    47    41   am
   124   188   187    1
   125   175   174    1
   126   187   189    1
   127    54    55    2
   128    54    53    1
   129    39    40    1
   130    52    53    1
   131    41    42    2
   132    41    40    1
   133    94    95   ar
   134    94    93    1
   135    68    69    2
   136    68    67    1
   137   200   201    1
   138    70    67    1
   139    53    56    1
   140   111   109   ar
   141    40    43    1
   142    86    84   ar
   143    86    87   ar
   144    84    82   ar
   145    66    67    1
   146    56    57    1
   147    93    90    1
   148   110   109   ar
   149   201   203    1
   150   201   202    1
   151    80    79    2
   152   109   108    1
   153    82    81    1
   154    82    83   ar
   155    87    88    1
   156    87    85   ar
   157    81    78    1
   158    43    44    1
   159    46    44    1
   160    89    90    1
   161    79    78    1
   162    90    91    1
   163    77    78    1
   164   107   106    2
   165   108   105    1
   166    44    45    1
   167    85    83   ar
   168   106   105    1
   169     8     6    1
   170    91    92    2
   171    91    97   am
   172   105   104    1
   173    37    36    2
   174    30    28    1
   175   104    99   am
   176    97    98    1
   177     6     5    1
   178    28    27    1
   179     7     5    1
   180     5     2    1
   181    34    33    2
   182    36    38   am
   183    36    35    1
   184    32    31    1
   185    32    33    1
   186    32    35    1
   187    99    98    1
   188    99   100    2
   189    21    22   ar
   190    21    19   ar
   191    22    20   ar
   192    98   101    1
   193   103   101    1
   194     4     3    2
   195    26    25    2
   196    27    29    1
   197    27    24    1
   198    19    16   ar
   199     1     2    1
   200     2     3    1
   201   101   102    1
   202     3     9   am
   203    20    18   ar
   204    25    24    1
   205    23    24    1
   206    23    11   am
   207    16    18   ar
   208    16    14   ar
   209    18    17   ar
   210     9    10    1
   211    10    11    1
   212    10    13    1
   213    11    12    2
   214    14    13    1
   215    14    15   ar
   216    17    15   ar
