@<TRIPOS>MOLECULE
tmp/2vklA00.pdb
 90 82 0 0 0
SMALL
GASTEIGER

@<TRIPOS>ATOM
      1  N        -13.4320  -10.3260   -8.6220 N.3    23  ARG23      -0.1245
      2  CA       -13.6080   -8.8650   -8.5200 C.3    23  ARG23       0.1563
      3  C        -12.7350   -8.1070   -9.5840 C.2    23  ARG23       0.2260
      4  O        -13.1930   -7.1560  -10.2200 O.2    23  ARG23      -0.2867
      5  CB       -13.2350   -8.3560   -7.1370 C.3    23  ARG23       0.0307
      6  CG       -13.8080   -6.9340   -6.8690 C.3    23  ARG23       0.0489
      7  CD       -13.0540   -6.2690   -5.7060 C.3    23  ARG23       0.2205
      8  NE       -13.7330   -5.0900   -5.2100 N.pl3  23  ARG23      -0.0865
      9  CZ       -13.6800   -3.9130   -5.7970 C.cat  23  ARG23       0.5346
     10  NH1      -12.9940   -3.7610   -6.9270 N.pl3  23  ARG23       0.1354
     11  NH2      -14.3720   -2.8930   -5.2930 N.pl3  23  ARG23       0.1354
     12  N        -14.1510   -5.6180  -12.3480 N.3    27  SER27      -0.1217
     13  CA       -13.5620   -4.2700  -12.3590 C.3    27  SER27       0.1889
     14  C        -12.9640   -3.9010  -13.7280 C.2    27  SER27       0.2288
     15  O        -13.1900   -2.7970  -14.2220 O.2    27  SER27      -0.2866
     16  CB       -12.4780   -4.1500  -11.2920 C.3    27  SER27       0.2089
     17  OG       -13.0570   -4.2070  -10.0280 O.3    27  SER27      -0.2183
     18  N        -15.7230   -3.2550  -16.2100 N.3    30  ILE30      -0.1245
     19  CA       -16.2590   -1.9130  -16.0060 C.3    30  ILE30       0.1561
     20  C        -15.3570   -0.8480  -16.6230 C.2    30  ILE30       0.2260
     21  O        -15.8360    0.0660  -17.3110 O.2    30  ILE30      -0.2867
     22  CB       -16.4250   -1.5980  -14.5010 C.3    30  ILE30       0.0252
     23  CG1      -17.5500   -2.4740  -13.9380 C.3    30  ILE30       0.0019
     24  CG2      -16.7090   -0.0980  -14.3250 C.3    30  ILE30       0.0019
     25  CD1      -17.5490   -2.5510  -12.4330 C.3    30  ILE30       0.0001
     26  N        -16.4220    1.6300  -19.6450 N.3    34  ARG34      -0.1245
     27  CA       -16.4290    3.0610  -19.3350 C.3    34  ARG34       0.1563
     28  C        -15.5920    3.8280  -20.3540 C.2    34  ARG34       0.2260
     29  O        -16.0290    4.8260  -20.9350 O.2    34  ARG34      -0.2867
     30  CB       -15.8960    3.2850  -17.9060 C.3    34  ARG34       0.0307
     31  CG       -15.9850    4.7260  -17.4340 C.3    34  ARG34       0.0489
     32  CD       -15.6210    4.8780  -15.9520 C.3    34  ARG34       0.2205
     33  NE       -14.2410    4.5130  -15.6350 N.pl3  34  ARG34      -0.0865
     34  CZ       -13.1730    5.2330  -15.9730 C.cat  34  ARG34       0.5346
     35  NH1      -13.2860    6.3470  -16.7020 N.pl3  34  ARG34       0.1354
     36  NH2      -11.9660    4.8200  -15.6130 N.pl3  34  ARG34       0.1354
     37  N        -14.8640    8.7230  -14.7400 N.3    41  ARG41      -0.1231
     38  CA       -14.4750    7.9060  -13.6100 C.3    41  ARG41       0.1694
     39  C        -15.1650    8.3970  -12.3570 C.2    41  ARG41       0.2591
     40  O        -15.1460    9.5880  -12.0860 O.2    41  ARG41      -0.2718
     41  CB       -12.9650    7.9460  -13.4080 C.3    41  ARG41       0.0321
     42  CG       -12.5120    6.9810  -12.3380 C.3    41  ARG41       0.0489
     43  CD       -10.9990    6.9670  -12.2450 C.3    41  ARG41       0.2205
     44  NE       -10.5600    6.3760  -11.0000 N.pl3  41  ARG41      -0.0865
     45  CZ        -9.3190    6.4060  -10.5330 C.cat  41  ARG41       0.5346
     46  NH1       -8.3590    7.0140  -11.2190 N.pl3  41  ARG41       0.1354
     47  NH2       -9.0470    5.8350   -9.3730 N.pl3  41  ARG41       0.1354
     48  N        -15.7240    7.4800  -11.5810 N.am   42  LEU42      -0.1980
     49  CA       -16.4790    7.8260  -10.3910 C.3    42  LEU42       0.1596
     50  C        -15.6460    7.8390   -9.0970 C.2    42  LEU42       0.2287
     51  O        -15.9250    7.0970   -8.1460 O.2    42  LEU42      -0.2864
     52  CB       -17.7200    6.9360  -10.2740 C.3    42  LEU42       0.0297
     53  CG       -18.6720    6.9390  -11.4730 C.3    42  LEU42       0.0022
     54  CD1      -19.8910    6.0590  -11.1860 C.3    42  LEU42       0.0001
     55  CD2      -19.0540    8.3690  -11.8280 C.3    42  LEU42       0.0001
     56  N        -18.5610    6.8480   -6.2090 N.3    46  ARG46      -0.1231
     57  CA       -18.5140    5.3820   -6.0290 C.3    46  ARG46       0.1694
     58  C        -17.2020    4.8600   -5.4130 C.2    46  ARG46       0.2591
     59  O        -17.2160    4.0740   -4.4600 O.2    46  ARG46      -0.2718
     60  CB       -18.7890    4.7020   -7.3390 C.3    46  ARG46       0.0321
     61  CG       -18.7390    3.2460   -7.1810 C.3    46  ARG46       0.0489
     62  CD       -19.5080    2.5650   -8.2250 C.3    46  ARG46       0.2205
     63  NE       -19.1060    1.1910   -8.1240 N.pl3  46  ARG46      -0.0865
     64  CZ       -19.6360    0.3180   -7.2860 C.cat  46  ARG46       0.5346
     65  NH1      -19.1330   -0.8960   -7.2440 N.pl3  46  ARG46       0.1354
     66  NH2      -20.7000    0.6410   -6.5690 N.pl3  46  ARG46       0.1354
     67  N        -16.0620    5.2740   -5.9470 N.am   47  GLU47      -0.1979
     68  CA       -14.7820    4.7610   -5.3920 C.3    47  GLU47       0.1602
     69  C        -14.6190    5.1530   -3.9090 C.2    47  GLU47       0.2287
     70  O        -14.1760    4.3500   -3.0770 O.2    47  GLU47      -0.2864
     71  CB       -13.5980    5.1900   -6.2410 C.3    47  GLU47       0.0415
     72  CG       -13.7190    4.6640   -7.6930 C.3    47  GLU47       0.1163
     73  CD       -12.4780    4.9100   -8.5160 C.2    47  GLU47       0.3649
     74  OE1      -11.4250    5.2880   -7.9570 O.co2  47  GLU47      -0.2457
     75  OE2      -12.5710    4.7880   -9.7560 O.co2  47  GLU47      -0.2457
     76  N        -16.6240    2.7580   -1.8940 N.3    50  VAL50      -0.1245
     77  CA       -15.8960    1.4450   -1.7190 C.3    50  VAL50       0.1561
     78  C        -14.8610    1.5920   -0.5960 C.2    50  VAL50       0.2260
     79  O        -14.7850    0.7510    0.2820 O.2    50  VAL50      -0.2867
     80  CB       -15.2250    0.9990   -3.0100 C.3    50  VAL50       0.0252
     81  CG1      -14.2850   -0.2240   -2.8120 C.3    50  VAL50       0.0019
     82  CG2      -16.3350    0.7420   -4.1330 C.3    50  VAL50       0.0019
     83  N         -9.3100   -1.4930   -5.9900 N.3    69  LEU69      -0.1245
     84  CA        -9.5770   -0.6070   -7.1350 C.3    69  LEU69       0.1561
     85  C         -8.4380   -0.6930   -8.1490 C.2    69  LEU69       0.2260
     86  O         -8.6890   -0.7440   -9.3560 O.2    69  LEU69      -0.2867
     87  CB        -9.8000    0.8140   -6.6480 C.3    69  LEU69       0.0270
     88  CG       -11.1000    0.9950   -5.8430 C.3    69  LEU69       0.0019
     89  CD1      -11.0590    2.2470   -4.9220 C.3    69  LEU69       0.0001
     90  CD2      -12.3630    1.0160   -6.7300 C.3    69  LEU69       0.0001
@<TRIPOS>BOND
     1    29    28    2
     2    28    27    1
     3    26    27    1
     4    27    30    1
     5    30    31    1
     6    31    32    1
     7    21    20    2
     8    35    34    1
     9    20    19    1
    10    18    19    1
    11    19    22    1
    12    34    33    2
    13    34    36    1
    14    32    33    1
    15    37    38    1
    16    22    24    1
    17    22    23    1
    18    15    14    2
    19    23    25    1
    20    14    13    1
    21    38    41    1
    22    38    39    1
    23    41    42    1
    24    13    12    1
    25    13    16    1
    26    39    40    2
    27    39    48   am
    28    42    43    1
    29    43    44    1
    30    55    53    1
    31    48    49    1
    32    53    54    1
    33    53    52    1
    34    16    17    1
    35    46    45    1
    36    44    45    2
    37    45    47    1
    38    49    52    1
    39    49    50    1
    40     4     3    2
    41    75    73   ar
    42     3     2    1
    43    86    85    2
    44    50    51    2
    45     1     2    1
    46     2     5    1
    47    73    74   ar
    48    73    72    1
    49    62    63    1
    50    62    61    1
    51    85    84    1
    52    63    64    2
    53    72    71    1
    54    60    61    1
    55    60    57    1
    56    64    65    1
    57    64    66    1
    58     5     6    1
    59    84    87    1
    60    84    83    1
    61    10     9    1
    62     6     7    1
    63    90    88    1
    64    87    88    1
    65    71    68    1
    66    56    57    1
    67    57    58    1
    68    67    58   am
    69    67    68    1
    70    88    89    1
    71     9    11    1
    72     9     8    2
    73     7     8    1
    74    58    59    2
    75    68    69    1
    76    82    80    1
    77    69    70    2
    78    80    81    1
    79    80    77    1
    80    76    77    1
    81    77    78    1
    82    78    79    2
