@<TRIPOS>MOLECULE
tmp/2vkoC00.pdb
 113 110 0 0 0
SMALL
GASTEIGER

@<TRIPOS>ATOM
      1  N        -23.9380   -6.4230  -11.0380 N.3    20  TYR20      -0.1227
      2  CA       -24.1270   -5.6830  -12.2820 C.3    20  TYR20       0.1736
      3  C        -22.9260   -5.9020  -13.1970 C.2    20  TYR20       0.2595
      4  O        -23.0800   -6.0870  -14.3840 O.2    20  TYR20      -0.2718
      5  CB       -24.3020   -4.1720  -12.0000 C.3    20  TYR20       0.0548
      6  CG       -24.3940   -3.3660  -13.2730 C.ar   20  TYR20      -0.0200
      7  CD1      -23.3130   -2.6220  -13.7290 C.ar   20  TYR20      -0.0009
      8  CD2      -25.5560   -3.4020  -14.0550 C.ar   20  TYR20      -0.0009
      9  CE1      -23.3940   -1.9010  -14.9230 C.ar   20  TYR20       0.0417
     10  CE2      -25.6530   -2.6930  -15.2290 C.ar   20  TYR20       0.0417
     11  CZ       -24.5690   -1.9490  -15.6650 C.ar   20  TYR20       0.1957
     12  OH       -24.6540   -1.2480  -16.8350 O.3    20  TYR20      -0.2866
     13  N        -21.7290   -5.8410  -12.6320 N.am   21  ILE21      -0.1966
     14  CA       -20.5320   -5.9370  -13.4230 C.3    21  ILE21       0.1727
     15  C        -20.2770   -7.3860  -13.8170 C.2    21  ILE21       0.2616
     16  O        -20.0040   -7.6520  -14.9710 O.2    21  ILE21      -0.2715
     17  CB       -19.3310   -5.3270  -12.6590 C.3    21  ILE21       0.0290
     18  CG1      -19.5990   -3.8270  -12.4440 C.3    21  ILE21       0.0022
     19  CG2      -17.9960   -5.6030  -13.3730 C.3    21  ILE21       0.0023
     20  CD1      -18.7190   -3.2110  -11.3510 C.3    21  ILE21       0.0001
     21  N        -20.4010   -8.3090  -12.8650 N.am   22  PHE22      -0.1960
     22  CA       -19.8900   -9.6700  -13.0740 C.3    22  PHE22       0.1771
     23  C        -20.9250  -10.7240  -13.4050 C.2    22  PHE22       0.2620
     24  O        -20.5680  -11.8180  -13.8320 O.2    22  PHE22      -0.2715
     25  CB       -19.0850  -10.1190  -11.8550 C.3    22  PHE22       0.0574
     26  CG       -17.8660   -9.2980  -11.6200 C.ar   22  PHE22      -0.0200
     27  CD1      -17.8190   -8.3670  -10.5720 C.ar   22  PHE22      -0.0042
     28  CD2      -16.7690   -9.4270  -12.4560 C.ar   22  PHE22      -0.0042
     29  CE1      -16.6800   -7.6010  -10.3810 C.ar   22  PHE22      -0.0003
     30  CE2      -15.6190   -8.6670  -12.2470 C.ar   22  PHE22      -0.0003
     31  CZ       -15.5810   -7.7520  -11.2240 C.ar   22  PHE22      -0.0000
     32  N        -22.1920  -10.4170  -13.1660 N.am   23  SER23      -0.1936
     33  CA       -23.2530  -11.3910  -13.3920 C.3    23  SER23       0.2055
     34  C        -24.1910  -10.8540  -14.4760 C.2    23  SER23       0.2643
     35  O        -23.8540   -9.8920  -15.1860 O.2    23  SER23      -0.2714
     36  CB       -23.9730  -11.6830  -12.0560 C.3    23  SER23       0.2130
     37  OG       -25.0050  -12.6510  -12.1900 O.3    23  SER23      -0.2179
     38  N        -25.3590  -11.4620  -14.5960 N.am   24  ASP24      -0.1971
     39  CA       -26.3730  -11.0270  -15.5560 C.3    24  ASP24       0.1709
     40  C        -27.1670   -9.8710  -14.9940 C.2    24  ASP24       0.2293
     41  O        -27.3860   -9.7910  -13.7920 O.2    24  ASP24      -0.2864
     42  CB       -27.3300  -12.1720  -15.8920 C.3    24  ASP24       0.1436
     43  CG       -26.7230  -13.1820  -16.8300 C.2    24  ASP24       0.3671
     44  OD1      -25.7260  -12.8700  -17.5140 O.co2  24  ASP24      -0.2456
     45  OD2      -27.2620  -14.2970  -16.8930 O.co2  24  ASP24      -0.2456
     46  N        -26.8450    0.3270  -20.6360 N.3    48  LYS48      -0.1231
     47  CA       -25.4060    0.2890  -20.4170 C.3    48  LYS48       0.1693
     48  C        -24.8870   -1.1520  -20.3760 C.2    48  LYS48       0.2591
     49  O        -23.8210   -1.4740  -20.9110 O.2    48  LYS48      -0.2718
     50  CB       -25.0630    0.9890  -19.0960 C.3    48  LYS48       0.0285
     51  CG       -24.8500    2.4970  -19.1980 C.3    48  LYS48       0.0035
     52  CD       -23.9650    3.0080  -18.0510 C.3    48  LYS48       0.0206
     53  CE       -24.0270    4.5140  -17.9470 C.3    48  LYS48       0.1093
     54  NZ       -23.2770    5.1440  -19.0650 N.3    48  LYS48      -0.1314
     55  N        -25.6290   -2.0290  -19.7190 N.am   49  LYS49      -0.1980
     56  CA       -25.2300   -3.4300  -19.6980 C.3    49  LYS49       0.1596
     57  C        -25.2760   -4.0260  -21.0880 C.2    49  LYS49       0.2287
     58  O        -24.3480   -4.6980  -21.4930 O.2    49  LYS49      -0.2864
     59  CB       -26.0840   -4.2280  -18.7260 C.3    49  LYS49       0.0298
     60  CG       -25.6140   -5.6800  -18.5210 C.3    49  LYS49       0.0038
     61  CD       -24.3380   -5.8200  -17.7250 C.3    49  LYS49       0.0206
     62  CE       -24.2620   -7.2830  -17.3000 C.3    49  LYS49       0.1093
     63  NZ       -23.0140   -7.6370  -16.6070 N.3    49  LYS49      -0.1314
     64  N        -22.2780   -2.8440  -22.9550 N.3    52  SER52      -0.1202
     65  CA       -21.0300   -3.4660  -22.4930 C.3    52  SER52       0.2020
     66  C        -20.9560   -4.9300  -22.9420 C.2    52  SER52       0.2618
     67  O        -19.8560   -5.4420  -23.2250 O.2    52  SER52      -0.2717
     68  CB       -20.8930   -3.3540  -20.9790 C.3    52  SER52       0.2103
     69  OG       -21.8440   -4.2130  -20.3760 O.3    52  SER52      -0.2182
     70  N        -22.1220   -5.5840  -23.0150 N.am   53  LEU53      -0.1979
     71  CA       -22.1960   -6.9560  -23.5610 C.3    53  LEU53       0.1596
     72  C        -21.7250   -6.9870  -25.0180 C.2    53  LEU53       0.2287
     73  O        -20.9370   -7.8450  -25.3860 O.2    53  LEU53      -0.2864
     74  CB       -23.6090   -7.5420  -23.4470 C.3    53  LEU53       0.0297
     75  CG       -23.9380   -8.0250  -22.0340 C.3    53  LEU53       0.0022
     76  CD1      -25.4720   -8.2110  -21.8990 C.3    53  LEU53       0.0001
     77  CD2      -23.1790   -9.2850  -21.6710 C.3    53  LEU53       0.0001
     78  N        -17.8820   -6.2230  -25.1590 N.3    56  GLU56      -0.1245
     79  CA       -17.0910   -7.3820  -24.7720 C.3    56  GLU56       0.1567
     80  C        -17.2260   -8.5220  -25.7620 C.2    56  GLU56       0.2260
     81  O        -16.2370   -9.1730  -26.0930 O.2    56  GLU56      -0.2867
     82  CB       -17.4630   -7.8310  -23.3590 C.3    56  GLU56       0.0388
     83  CG       -17.0960   -6.7740  -22.3500 C.3    56  GLU56       0.1160
     84  CD       -17.1150   -7.2300  -20.9100 C.2    56  GLU56       0.3649
     85  OE1      -16.8090   -6.3720  -20.0500 O.co2  56  GLU56      -0.2457
     86  OE2      -17.4380   -8.4110  -20.6410 O.co2  56  GLU56      -0.2457
     87  N        -22.5270  -15.7140  -26.9850 N.3    71  VAL71      -0.1231
     88  CA       -23.2830  -15.6070  -25.7330 C.3    71  VAL71       0.1692
     89  C        -23.5230  -14.1240  -25.4150 C.2    71  VAL71       0.2592
     90  O        -24.6040  -13.7530  -24.9950 O.2    71  VAL71      -0.2718
     91  CB       -22.4990  -16.1950  -24.5480 C.3    71  VAL71       0.0266
     92  CG1      -23.2910  -15.9860  -23.2400 C.3    71  VAL71       0.0020
     93  CG2      -22.2210  -17.6830  -24.7660 C.3    71  VAL71       0.0020
     94  N        -22.4980  -13.3010  -25.6220 N.am   72  PHE72      -0.1976
     95  CA       -22.5470  -11.9060  -25.2900 C.3    72  PHE72       0.1639
     96  C        -23.5590  -11.2150  -26.1820 C.2    72  PHE72       0.2290
     97  O        -24.3910  -10.4510  -25.7030 O.2    72  PHE72      -0.2864
     98  CB       -21.1600  -11.2690  -25.4720 C.3    72  PHE72       0.0560
     99  CG       -20.2390  -11.5730  -24.3670 C.ar   72  PHE72      -0.0200
    100  CD1      -19.5960  -12.8010  -24.3080 C.ar   72  PHE72      -0.0042
    101  CD2      -20.0270  -10.6380  -23.3800 C.ar   72  PHE72      -0.0042
    102  CE1      -18.7140  -13.1140  -23.2760 C.ar   72  PHE72      -0.0003
    103  CE2      -19.1420  -10.9010  -22.3360 C.ar   72  PHE72      -0.0003
    104  CZ       -18.4850  -12.1460  -22.2720 C.ar   72  PHE72      -0.0000
    105  N        -27.0060  -12.3420  -25.3740 N.3    75  LYS75      -0.1245
    106  CA       -27.4440  -11.6840  -24.1380 C.3    75  LYS75       0.1561
    107  C        -27.8500  -10.2320  -24.3550 C.2    75  LYS75       0.2260
    108  O        -28.8390   -9.7850  -23.7900 O.2    75  LYS75      -0.2867
    109  CB       -26.4220  -11.8470  -23.0180 C.3    75  LYS75       0.0271
    110  CG       -26.5520  -13.1550  -22.3020 C.3    75  LYS75       0.0035
    111  CD       -25.6230  -13.1930  -21.1110 C.3    75  LYS75       0.0206
    112  CE       -25.6370  -14.5410  -20.4800 C.3    75  LYS75       0.1093
    113  NZ       -24.6190  -14.5730  -19.4150 N.3    75  LYS75      -0.1314
@<TRIPOS>BOND
     1    87    88    1
     2    96    97    2
     3    96    95    1
     4    81    80    2
     5    80    79    1
     6    88    89    1
     7    88    91    1
     8    94    89   am
     9    94    95    1
    10    98    95    1
    11    98    99    1
    12    89    90    2
    13    73    72    2
    14   105   106    1
    15    78    79    1
    16    72    71    1
    17    79    82    1
    18    93    91    1
    19    91    92    1
    20    99   100   ar
    21    99   101   ar
    22   107   106    1
    23   107   108    2
    24   100   102   ar
    25   106   109    1
    26    71    74    1
    27    71    70    1
    28    74    75    1
    29   101   103   ar
    30    82    83    1
    31   102   104   ar
    32    67    66    2
    33   109   110    1
    34    70    66   am
    35    64    65    1
    36    66    65    1
    37    65    68    1
    38    83    84    1
    39   103   104   ar
    40   110   111    1
    41    75    76    1
    42    75    77    1
    43    58    57    2
    44   111   112    1
    45    57    56    1
    46    68    69    1
    47    49    48    2
    48    84    86   ar
    49    84    85   ar
    50    46    47    1
    51   112   113    1
    52    47    48    1
    53    47    50    1
    54    48    55   am
    55    55    56    1
    56    56    59    1
    57    51    50    1
    58    51    52    1
    59    54    53    1
    60    59    60    1
    61    60    61    1
    62    52    53    1
    63    61    62    1
    64    44    43   ar
    65    62    63    1
    66    45    43   ar
    67    12    11    1
    68    43    42    1
    69    42    39    1
    70    11    10   ar
    71    11     9   ar
    72    39    40    1
    73    39    38    1
    74    10     8   ar
    75    35    34    2
    76    40    41    2
    77    16    15    2
    78     9     7   ar
    79    38    34   am
    80    34    33    1
    81     4     3    2
    82     8     6   ar
    83    24    23    2
    84    15    14    1
    85    15    21   am
    86     7     6   ar
    87    14    17    1
    88    14    13    1
    89    23    32   am
    90    23    22    1
    91    33    32    1
    92    33    36    1
    93    19    17    1
    94     6     5    1
    95     3    13   am
    96     3     2    1
    97    22    21    1
    98    22    25    1
    99    17    18    1
   100    28    30   ar
   101    28    26   ar
   102    18    20    1
   103     2     5    1
   104     2     1    1
   105    30    31   ar
   106    37    36    1
   107    25    26    1
   108    26    27   ar
   109    31    29   ar
   110    27    29   ar
