@<TRIPOS>MOLECULE
tmp/2vkoD00.pdb
 124 121 0 0 0
SMALL
GASTEIGER

@<TRIPOS>ATOM
      1  N         15.1140    8.5520  -53.3500 N.3    20  TYR20      -0.1227
      2  CA        15.0240    7.9050  -52.0350 C.3    20  TYR20       0.1736
      3  C         16.2370    8.2020  -51.1730 C.2    20  TYR20       0.2595
      4  O         16.0860    8.5170  -50.0040 O.2    20  TYR20      -0.2718
      5  CB        14.8310    6.3880  -52.1420 C.3    20  TYR20       0.0548
      6  CG        14.7770    5.7180  -50.7880 C.ar   20  TYR20      -0.0200
      7  CD1       15.8570    4.9770  -50.3140 C.ar   20  TYR20      -0.0009
      8  CD2       13.6610    5.8770  -49.9580 C.ar   20  TYR20      -0.0009
      9  CE1       15.8290    4.3830  -49.0660 C.ar   20  TYR20       0.0417
     10  CE2       13.6140    5.2830  -48.7110 C.ar   20  TYR20       0.0417
     11  CZ        14.6980    4.5380  -48.2670 C.ar   20  TYR20       0.1957
     12  OH        14.6740    3.9220  -47.0430 O.3    20  TYR20      -0.2866
     13  N         17.4300    8.1060  -51.7620 N.am   21  ILE21      -0.1966
     14  CA        18.6660    8.3140  -51.0360 C.3    21  ILE21       0.1727
     15  C         18.9080    9.7840  -50.7090 C.2    21  ILE21       0.2616
     16  O         19.2590   10.1080  -49.5780 O.2    21  ILE21      -0.2715
     17  CB        19.8570    7.6880  -51.7840 C.3    21  ILE21       0.0290
     18  CG1       19.6470    6.1720  -51.8460 C.3    21  ILE21       0.0022
     19  CG2       21.1920    8.0410  -51.0910 C.3    21  ILE21       0.0023
     20  CD1       20.4340    5.4660  -52.9170 C.3    21  ILE21       0.0001
     21  N         18.6820   10.6690  -51.6810 N.am   22  PHE22      -0.1960
     22  CA        19.2350   12.0000  -51.5950 C.3    22  PHE22       0.1771
     23  C         18.1940   13.0560  -51.3240 C.2    22  PHE22       0.2620
     24  O         18.5430   14.1680  -50.9520 O.2    22  PHE22      -0.2715
     25  CB        20.0010   12.3490  -52.8760 C.3    22  PHE22       0.0574
     26  CG        21.2120   11.4920  -53.1070 C.ar   22  PHE22      -0.0200
     27  CD1       21.1880   10.4710  -54.0500 C.ar   22  PHE22      -0.0042
     28  CD2       22.3740   11.6980  -52.3650 C.ar   22  PHE22      -0.0042
     29  CE1       22.3140    9.6800  -54.2610 C.ar   22  PHE22      -0.0003
     30  CE2       23.5100   10.9140  -52.5750 C.ar   22  PHE22      -0.0003
     31  CZ        23.4830    9.9070  -53.5200 C.ar   22  PHE22      -0.0000
     32  N         16.9270   12.7130  -51.5420 N.am   23  SER23      -0.1936
     33  CA        15.8410   13.6770  -51.3960 C.3    23  SER23       0.2055
     34  C         14.9620   13.2550  -50.2260 C.2    23  SER23       0.2643
     35  O         15.4010   12.4480  -49.4070 O.2    23  SER23      -0.2714
     36  CB        15.0150   13.7530  -52.6880 C.3    23  SER23       0.2130
     37  OG        14.2190   14.9280  -52.6850 O.3    23  SER23      -0.2179
     38  N         13.7510   13.8130  -50.1260 N.am   24  ASP24      -0.1971
     39  CA        12.8430   13.4370  -49.0470 C.3    24  ASP24       0.1709
     40  C         12.0050   12.2530  -49.4570 C.2    24  ASP24       0.2293
     41  O         11.7720   12.0460  -50.6440 O.2    24  ASP24      -0.2864
     42  CB        11.9060   14.5650  -48.6700 C.3    24  ASP24       0.1436
     43  CG        12.6210   15.7730  -48.1020 C.2    24  ASP24       0.3671
     44  OD1       13.6590   15.6200  -47.4200 O.co2  24  ASP24      -0.2456
     45  OD2       12.1170   16.8920  -48.3280 O.co2  24  ASP24      -0.2456
     46  N         13.0610    2.7050  -42.9040 N.3    48  LYS48      -0.1231
     47  CA        14.5110    2.7840  -43.1650 C.3    48  LYS48       0.1693
     48  C         14.9210    4.2400  -43.2960 C.2    48  LYS48       0.2591
     49  O         15.9560    4.6620  -42.7880 O.2    48  LYS48      -0.2718
     50  CB        14.9080    2.0560  -44.4580 C.3    48  LYS48       0.0285
     51  CG        14.7560    0.5710  -44.4310 C.3    48  LYS48       0.0035
     52  CD        15.3610   -0.0790  -45.6860 C.3    48  LYS48       0.0206
     53  CE        16.8520   -0.2020  -45.5810 C.3    48  LYS48       0.1093
     54  NZ        17.2500   -1.2690  -44.6360 N.3    48  LYS48      -0.1314
     55  N         14.0770    5.0000  -43.9770 N.am   49  LYS49      -0.1980
     56  CA        14.3340    6.4100  -44.2620 C.3    49  LYS49       0.1596
     57  C         14.3760    7.1480  -42.9240 C.2    49  LYS49       0.2287
     58  O         15.2070    7.9900  -42.7100 O.2    49  LYS49      -0.2864
     59  CB        13.1580    6.9290  -45.0610 C.3    49  LYS49       0.0298
     60  CG        13.4280    7.5520  -46.3530 C.3    49  LYS49       0.0038
     61  CD        13.9250    8.9490  -46.2250 C.3    49  LYS49       0.0206
     62  CE        15.3610    8.9650  -46.6280 C.3    49  LYS49       0.1093
     63  NZ        15.8590   10.0180  -47.6620 N.3    49  LYS49      -0.1314
     64  N         14.9100    5.9150  -39.8850 N.3    51  ARG51      -0.1231
     65  CA        16.1190    5.4660  -39.1350 C.3    51  ARG51       0.1694
     66  C         17.4030    6.0420  -39.6610 C.2    51  ARG51       0.2593
     67  O         18.3390    6.3280  -38.8820 O.2    51  ARG51      -0.2718
     68  CB        16.2060    3.9540  -39.0850 C.3    51  ARG51       0.0321
     69  CG        15.1700    3.3670  -38.1180 C.3    51  ARG51       0.0489
     70  CD        14.9670    1.8840  -38.3030 C.3    51  ARG51       0.2205
     71  NE        14.4380    1.2680  -37.0820 N.pl3  51  ARG51      -0.0865
     72  CZ        13.1580    1.2560  -36.7030 C.cat  51  ARG51       0.5346
     73  NH1       12.2100    1.8370  -37.4390 N.pl3  51  ARG51       0.1354
     74  NH2       12.8210    0.6520  -35.5680 N.pl3  51  ARG51       0.1354
     75  N         17.4530    6.2480  -40.9750 N.am   52  SER52      -0.1938
     76  CA        18.6350    6.8430  -41.5720 C.3    52  SER52       0.2055
     77  C         18.7010    8.3670  -41.2750 C.2    52  SER52       0.2642
     78  O         19.7810    8.8940  -41.1000 O.2    52  SER52      -0.2714
     79  CB        18.6910    6.5580  -43.0690 C.3    52  SER52       0.2130
     80  OG        17.9090    7.5340  -43.7270 O.3    52  SER52      -0.2179
     81  N         17.5420    9.0330  -41.1790 N.am   53  LEU53      -0.1977
     82  CA        17.4490   10.4460  -40.7880 C.3    53  LEU53       0.1596
     83  C         17.9330   10.6240  -39.3530 C.2    53  LEU53       0.2287
     84  O         18.6860   11.5250  -39.0680 O.2    53  LEU53      -0.2864
     85  CB        15.9900   10.9230  -40.8800 C.3    53  LEU53       0.0297
     86  CG        15.5390   11.2710  -42.2970 C.3    53  LEU53       0.0022
     87  CD1       14.0400   11.3580  -42.4740 C.3    53  LEU53       0.0001
     88  CD2       16.2120   12.5680  -42.8000 C.3    53  LEU53       0.0001
     89  N         21.8370    9.9490  -39.3590 N.3    56  GLU56      -0.1245
     90  CA        22.5990   11.0550  -39.9570 C.3    56  GLU56       0.1567
     91  C         22.4510   12.3110  -39.1360 C.2    56  GLU56       0.2260
     92  O         23.4170   13.0610  -38.9900 O.2    56  GLU56      -0.2867
     93  CB        22.1870   11.2740  -41.3960 C.3    56  GLU56       0.0388
     94  CG        22.4750   10.0120  -42.1990 C.3    56  GLU56       0.1160
     95  CD        22.4290   10.1990  -43.6860 C.2    56  GLU56       0.3649
     96  OE1       22.8270    9.2410  -44.3950 O.co2  56  GLU56      -0.2457
     97  OE2       22.0170   11.2900  -44.1320 O.co2  56  GLU56      -0.2457
     98  N         17.2200   19.6960  -38.8770 N.3    71  VAL71      -0.1231
     99  CA        16.4220   19.3300  -40.0510 C.3    71  VAL71       0.1692
    100  C         16.1790   17.8110  -40.1420 C.2    71  VAL71       0.2592
    101  O         15.0650   17.3690  -40.4480 O.2    71  VAL71      -0.2718
    102  CB        17.0830   19.8480  -41.3610 C.3    71  VAL71       0.0266
    103  CG1       16.1840   19.5490  -42.5720 C.3    71  VAL71       0.0020
    104  CG2       17.3420   21.3440  -41.2580 C.3    71  VAL71       0.0020
    105  N         17.2210   17.0300  -39.8680 N.am   72  PHE72      -0.1976
    106  CA        17.1520   15.5670  -39.9210 C.3    72  PHE72       0.1639
    107  C         16.2010   15.0250  -38.8670 C.2    72  PHE72       0.2290
    108  O         15.3220   14.2130  -39.1620 O.2    72  PHE72      -0.2864
    109  CB        18.5420   14.9850  -39.6970 C.3    72  PHE72       0.0560
    110  CG        19.4200   15.0670  -40.9020 C.ar   72  PHE72      -0.0200
    111  CD1       20.0070   16.2870  -41.2710 C.ar   72  PHE72      -0.0042
    112  CD2       19.6830   13.9250  -41.6700 C.ar   72  PHE72      -0.0042
    113  CE1       20.8240   16.3630  -42.3930 C.ar   72  PHE72      -0.0003
    114  CE2       20.4970   14.0010  -42.7900 C.ar   72  PHE72      -0.0003
    115  CZ        21.0730   15.2170  -43.1490 C.ar   72  PHE72      -0.0000
    116  N         12.5470   15.9460  -39.6390 N.3    75  LYS75      -0.1245
    117  CA        12.0370   15.0560  -40.6770 C.3    75  LYS75       0.1561
    118  C         11.7470   13.6740  -40.1330 C.2    75  LYS75       0.2260
    119  O         10.7060   13.0750  -40.4460 O.2    75  LYS75      -0.2867
    120  CB        12.9640   15.0240  -41.8770 C.3    75  LYS75       0.0271
    121  CG        12.7860   16.2430  -42.7330 C.3    75  LYS75       0.0035
    122  CD        13.8340   16.3410  -43.8110 C.3    75  LYS75       0.0206
    123  CE        13.4990   17.4680  -44.7830 C.3    75  LYS75       0.1093
    124  NZ        14.5040   17.5520  -45.8640 N.3    75  LYS75      -0.1314
@<TRIPOS>BOND
     1    29    27   ar
     2    29    31   ar
     3    27    26   ar
     4    31    30   ar
     5     1     2    1
     6    26    25    1
     7    26    28   ar
     8    20    18    1
     9    25    22    1
    10    36    37    1
    11    36    33    1
    12    30    28   ar
    13     5     2    1
    14     5     6    1
    15     2     3    1
    16    18    17    1
    17    17    19    1
    18    17    14    1
    19    13     3   am
    20    13    14    1
    21    21    22    1
    22    21    15   am
    23    22    23    1
    24    32    33    1
    25    32    23   am
    26    33    34    1
    27    23    24    2
    28     3     4    2
    29    14    15    1
    30     6     7   ar
    31     6     8   ar
    32    15    16    2
    33    41    40    2
    34     7     9   ar
    35    34    38   am
    36    34    35    2
    37    38    39    1
    38     8    10   ar
    39    40    39    1
    40     9    11   ar
    41    39    42    1
    42    10    11   ar
    43    42    43    1
    44    45    43   ar
    45    11    12    1
    46    43    44   ar
    47    63    62    1
    48    62    61    1
    49    60    61    1
    50    60    59    1
    51   124   123    1
    52    52    53    1
    53    52    51    1
    54    53    54    1
    55    59    56    1
    56   123   122    1
    57    50    51    1
    58    50    47    1
    59    96    95   ar
    60    56    55    1
    61    56    57    1
    62    97    95   ar
    63    55    48   am
    64   122   121    1
    65    80    79    1
    66    95    94    1
    67    48    47    1
    68    48    49    2
    69    47    46    1
    70   115   114   ar
    71   115   113   ar
    72    79    76    1
    73    57    58    2
    74    88    86    1
    75   114   112   ar
    76   121   120    1
    77   103   102    1
    78    87    86    1
    79   113   111   ar
    80    86    85    1
    81    94    93    1
    82   120   117    1
    83   112   110   ar
    84    76    77    1
    85    76    75    1
    86    93    90    1
    87   102   104    1
    88   102    99    1
    89    77    81   am
    90    77    78    2
    91   111   110   ar
    92    81    82    1
    93    75    66   am
    94   110   109    1
    95    85    82    1
    96    82    83    1
    97   117   118    1
    98   117   116    1
    99   101   100    2
   100   119   118    2
   101   100    99    1
   102   100   105   am
   103    99    98    1
   104    90    89    1
   105    90    91    1
   106   106   105    1
   107   106   109    1
   108   106   107    1
   109    64    65    1
   110    66    65    1
   111    66    67    2
   112    83    84    2
   113   108   107    2
   114    91    92    2
   115    65    68    1
   116    68    69    1
   117    70    69    1
   118    70    71    1
   119    73    72    1
   120    71    72    2
   121    72    74    1
