@<TRIPOS>MOLECULE
tmp/2vkuA03.pdb
 132 128 0 0 0
SMALL
GASTEIGER

@<TRIPOS>ATOM
      1  N         14.3040   49.2040   41.3870 N.3    71  TYR71      -0.1241
      2  CA        14.9890   48.1060   42.0740 C.3    71  TYR71       0.1605
      3  C         15.8150   48.6130   43.2660 C.2    71  TYR71       0.2264
      4  O         17.0430   48.5590   43.2460 O.2    71  TYR71      -0.2867
      5  CB        15.9120   47.3790   41.0880 C.3    71  TYR71       0.0534
      6  CG        15.2130   46.7550   39.8920 C.ar   71  TYR71      -0.0201
      7  CD1       14.2450   45.7580   40.0590 C.ar   71  TYR71      -0.0009
      8  CD2       15.5540   47.1300   38.5920 C.ar   71  TYR71      -0.0009
      9  CE1       13.6380   45.1480   38.9570 C.ar   71  TYR71       0.0417
     10  CE2       14.9580   46.5280   37.4840 C.ar   71  TYR71       0.0417
     11  CZ        14.0020   45.5380   37.6710 C.ar   71  TYR71       0.1957
     12  OH        13.4230   44.9400   36.5680 O.3    71  TYR71      -0.2866
     13  N         16.6550   47.3430   45.9330 N.3    73  PHE73      -0.1227
     14  CA        17.5570   46.3690   46.5310 C.3    73  PHE73       0.1736
     15  C         18.9540   46.4170   45.9050 C.2    73  PHE73       0.2595
     16  O         19.9190   45.9150   46.4930 O.2    73  PHE73      -0.2718
     17  CB        16.9690   44.9580   46.4170 C.3    73  PHE73       0.0547
     18  CG        16.5890   44.5610   45.0180 C.ar   73  PHE73      -0.0202
     19  CD1       17.5130   43.9590   44.1750 C.ar   73  PHE73      -0.0042
     20  CD2       15.3000   44.7860   44.5460 C.ar   73  PHE73      -0.0042
     21  CE1       17.1610   43.5830   42.8810 C.ar   73  PHE73      -0.0003
     22  CE2       14.9350   44.4130   43.2510 C.ar   73  PHE73      -0.0003
     23  CZ        15.8680   43.8100   42.4160 C.ar   73  PHE73      -0.0000
     24  N         19.0710   47.0370   44.7310 N.am   74  MET74      -0.1979
     25  CA        20.3580   47.1280   44.0490 C.3    74  MET74       0.1605
     26  C         21.2310   48.2900   44.4860 C.2    74  MET74       0.2287
     27  O         22.4530   48.2180   44.3870 O.2    74  MET74      -0.2864
     28  CB        20.1600   47.2260   42.5350 C.3    74  MET74       0.0413
     29  CG        19.5450   45.9910   41.9050 C.3    74  MET74       0.0598
     30  SD        20.3770   44.4950   42.4300 S.3    74  MET74      -0.1393
     31  CE        22.0110   44.7690   41.7760 C.3    74  MET74       0.0692
     32  N         25.3690   48.1560   44.2860 N.3    78  PHE78      -0.1241
     33  CA        26.2430   48.8770   43.3600 C.3    78  PHE78       0.1605
     34  C         26.9830   49.9420   44.1440 C.2    78  PHE78       0.2264
     35  O         28.0920   50.3360   43.7940 O.2    78  PHE78      -0.2867
     36  CB        25.4370   49.5400   42.2370 C.3    78  PHE78       0.0534
     37  CG        24.7400   48.5620   41.3310 C.ar   78  PHE78      -0.0203
     38  CD1       25.2460   47.2750   41.1510 C.ar   78  PHE78      -0.0042
     39  CD2       23.6030   48.9380   40.6260 C.ar   78  PHE78      -0.0042
     40  CE1       24.6300   46.3780   40.2790 C.ar   78  PHE78      -0.0003
     41  CE2       22.9780   48.0490   39.7490 C.ar   78  PHE78      -0.0003
     42  CZ        23.4940   46.7670   39.5750 C.ar   78  PHE78      -0.0000
     43  N         24.4240   52.7530   30.2100 N.3    91  ARG91      -0.1245
     44  CA        25.1440   51.6470   30.8250 C.3    91  ARG91       0.1563
     45  C         25.2410   50.4760   29.8430 C.2    91  ARG91       0.2260
     46  O         26.3280   49.9590   29.5780 O.2    91  ARG91      -0.2867
     47  CB        24.4190   51.1990   32.0960 C.3    91  ARG91       0.0307
     48  CG        24.4340   52.2230   33.2210 C.3    91  ARG91       0.0489
     49  CD        23.5630   51.7600   34.3790 C.3    91  ARG91       0.2205
     50  NE        23.9260   50.4190   34.8370 N.pl3  91  ARG91      -0.0865
     51  CZ        23.2410   49.7290   35.7470 C.cat  91  ARG91       0.5346
     52  NH1       22.1520   50.2540   36.3010 N.pl3  91  ARG91       0.1354
     53  NH2       23.6400   48.5120   36.0990 N.pl3  91  ARG91       0.1354
     54  N         28.3370   45.8180   39.0610 N.3   247  SER247     -0.1217
     55  CA        27.2510   46.1220   38.1460 C.3   247  SER247      0.1889
     56  C         27.4170   45.3940   36.8130 C.2   247  SER247      0.2288
     57  O         26.4580   44.8400   36.2790 O.2   247  SER247     -0.2866
     58  CB        27.1800   47.6300   37.9170 C.3   247  SER247      0.2089
     59  OG        26.0430   47.9660   37.1490 O.3   247  SER247     -0.2183
     60  N         26.4860   41.6660   37.6570 N.3   250  PHE250     -0.1227
     61  CA        25.2430   41.2750   38.3070 C.3   250  PHE250      0.1736
     62  C         24.1330   40.7220   37.4250 C.2   250  PHE250      0.2595
     63  O         23.6600   39.6110   37.6530 O.2   250  PHE250     -0.2718
     64  CB        24.7040   42.4230   39.1610 C.3   250  PHE250      0.0547
     65  CG        23.9660   41.9550   40.3870 C.ar  250  PHE250     -0.0202
     66  CD1       22.6020   41.6780   40.3360 C.ar  250  PHE250     -0.0042
     67  CD2       24.6480   41.7540   41.5880 C.ar  250  PHE250     -0.0042
     68  CE1       21.9240   41.2050   41.4690 C.ar  250  PHE250     -0.0003
     69  CE2       23.9840   41.2820   42.7210 C.ar  250  PHE250     -0.0003
     70  CZ        22.6220   41.0080   42.6630 C.ar  250  PHE250     -0.0000
     71  N         23.7140   41.4740   36.4170 N.am  251  ALA251     -0.1980
     72  CA        22.6360   40.9980   35.5620 C.3   251  ALA251      0.1597
     73  C         22.9780   39.6810   34.8580 C.2   251  ALA251      0.2287
     74  O         22.0940   38.8610   34.6080 O.2   251  ALA251     -0.2864
     75  CB        22.2750   42.0670   34.5410 C.3   251  ALA251      0.0319
     76  N         23.6990   35.6040   38.0940 N.3   254  HIS254     -0.1241
     77  CA        22.6520   34.6970   38.5490 C.3   254  HIS254      0.1621
     78  C         21.7490   34.1980   37.4270 C.2   254  HIS254      0.2264
     79  O         21.2180   33.0930   37.5050 O.2   254  HIS254     -0.2867
     80  CB        21.8260   35.3390   39.6810 C.3   254  HIS254      0.0745
     81  CG        21.0600   36.5600   39.2740 C.ar  254  HIS254      0.0817
     82  ND1       19.7610   36.5060   38.8160 N.ar  254  HIS254     -0.2268
     83  CD2       21.3980   37.8710   39.2900 C.ar  254  HIS254      0.1154
     84  CE1       19.3300   37.7310   38.5710 C.ar  254  HIS254      0.1986
     85  NE2       20.3050   38.5780   38.8510 N.ar  254  HIS254     -0.2212
     86  N         14.6420   36.0310   35.5540 N.3   316  LEU316     -0.1231
     87  CA        14.0430   37.2560   36.0920 C.3   316  LEU316      0.1693
     88  C         12.5340   37.0410   35.9620 C.2   316  LEU316      0.2592
     89  O         11.9900   37.0980   34.8560 O.2   316  LEU316     -0.2718
     90  CB        14.4790   38.4870   35.2840 C.3   316  LEU316      0.0284
     91  CG        15.9820   38.7720   35.1610 C.3   316  LEU316      0.0019
     92  CD1       16.1770   40.2100   34.6900 C.3   316  LEU316      0.0001
     93  CD2       16.6720   38.5880   36.5040 C.3   316  LEU316      0.0001
     94  N         11.8570   36.7820   37.0810 N.am  317  ILE317     -0.1966
     95  CA        10.4230   36.5030   37.0300 C.3   317  ILE317      0.1727
     96  C          9.5170   37.7200   37.0190 C.2   317  ILE317      0.2616
     97  O          8.3220   37.5930   36.7770 O.2   317  ILE317     -0.2715
     98  CB         9.9850   35.5700   38.1890 C.3   317  ILE317      0.0290
     99  CG1       10.2290   36.2520   39.5410 C.3   317  ILE317      0.0022
    100  CG2       10.7450   34.2460   38.0910 C.3   317  ILE317      0.0023
    101  CD1        9.6540   35.4930   40.7350 C.3   317  ILE317      0.0001
    102  N         10.0880   38.8890   37.2850 N.am  318  ILE318     -0.1963
    103  CA         9.3330   40.1400   37.2890 C.3   318  ILE318      0.1727
    104  C         10.2670   41.2950   36.9290 C.2   318  ILE318      0.2616
    105  O         11.4050   41.3600   37.3970 O.2   318  ILE318     -0.2715
    106  CB         8.6630   40.3970   38.6740 C.3   318  ILE318      0.0290
    107  CG1        7.7690   41.6360   38.6050 C.3   318  ILE318      0.0022
    108  CG2        9.7220   40.5730   39.7550 C.3   318  ILE318      0.0023
    109  CD1        6.8510   41.8050   39.8140 C.3   318  ILE318      0.0001
    110  N          9.7890   42.1800   36.0610 N.am  319  LEU319     -0.1977
    111  CA        10.5560   43.3430   35.6200 C.3   319  LEU319      0.1596
    112  C          9.8260   44.5520   36.1930 C.2   319  LEU319      0.2287
    113  O          8.6110   44.6650   36.0470 O.2   319  LEU319     -0.2864
    114  CB        10.5870   43.4000   34.0880 C.3   319  LEU319      0.0297
    115  CG        11.0310   42.0940   33.4250 C.3   319  LEU319      0.0022
    116  CD1       11.0630   42.2520   31.9160 C.3   319  LEU319      0.0001
    117  CD2       12.4110   41.7080   33.9440 C.3   319  LEU319      0.0001
    118  N         14.8500   38.5970   45.6570 N.3   428  MET428     -0.1230
    119  CA        14.5300   39.0710   44.3110 C.3   428  MET428      0.1702
    120  C         15.3920   38.3130   43.3090 C.2   428  MET428      0.2592
    121  O         14.9730   38.0560   42.1770 O.2   428  MET428     -0.2718
    122  CB        14.7730   40.5790   44.1860 C.3   428  MET428      0.0401
    123  CG        13.7480   41.4460   44.9140 C.3   428  MET428      0.0596
    124  SD        12.0500   41.1680   44.3450 S.3   428  MET428     -0.1393
    125  CE        12.1040   41.8370   42.6940 C.3   428  MET428      0.0692
    126  N         16.5980   37.9530   43.7310 N.am  429  VAL429     -0.1980
    127  CA        17.4930   37.1830   42.8730 C.3   429  VAL429      0.1595
    128  C         17.1700   35.7090   43.0680 C.2   429  VAL429      0.2287
    129  O         17.4380   35.1410   44.1270 O.2   429  VAL429     -0.2864
    130  CB        18.9680   37.4030   43.2290 C.3   429  VAL429      0.0276
    131  CG1       19.8280   36.3930   42.4810 C.3   429  VAL429      0.0022
    132  CG2       19.3800   38.8140   42.8680 C.3   429  VAL429      0.0022
@<TRIPOS>BOND
     1    46    45    2
     2    45    44    1
     3    43    44    1
     4    44    47    1
     5   116   115    1
     6    47    48    1
     7    48    49    1
     8   115   117    1
     9   115   114    1
    10   114   111    1
    11    49    50    1
    12    75    72    1
    13    74    73    2
    14    92    91    1
    15    50    51    2
    16    89    88    2
    17    73    72    1
    18    91    90    1
    19    91    93    1
    20    90    87    1
    21    86    87    1
    22    72    71    1
    23   111   110    1
    24   111   112    1
    25    51    53    1
    26    51    52    1
    27    88    87    1
    28    88    94   am
    29   113   112    2
    30   110   104   am
    31    57    56    2
    32    71    62   am
    33    12    11    1
    34    97    96    2
    35    56    55    1
    36   104   103    1
    37   104   105    2
    38    96    95    1
    39    96   102   am
    40    95    94    1
    41    95    98    1
    42    59    58    1
    43   102   103    1
    44   103   106    1
    45    62    63    2
    46    62    61    1
    47    78    79    2
    48    78    77    1
    49    10    11   ar
    50    10     8   ar
    51    60    61    1
    52    11     9   ar
    53    58    55    1
    54   100    98    1
    55    76    77    1
    56    55    54    1
    57    98    99    1
    58    61    64    1
    59    77    80    1
    60    84    82   ar
    61    84    85   ar
    62     8     6   ar
    63   107   106    1
    64   107   109    1
    65   106   108    1
    66    82    81   ar
    67    85    83   ar
    68     9     7   ar
    69    64    65    1
    70    81    83   ar
    71    81    80    1
    72    99   101    1
    73    42    41   ar
    74    42    40   ar
    75    41    39   ar
    76     6     7   ar
    77     6     5    1
    78    40    38   ar
    79    66    65   ar
    80    66    68   ar
    81    65    67   ar
    82    39    37   ar
    83     5     2    1
    84    38    37   ar
    85    37    36    1
    86     1     2    1
    87    68    70   ar
    88    67    69   ar
    89    31    30    1
    90    29    30    1
    91    29    28    1
    92     2     3    1
    93   121   120    2
    94    36    33    1
    95    23    21   ar
    96    23    22   ar
    97   131   130    1
    98    28    25    1
    99    70    69   ar
   100   125   124    1
   101   132   130    1
   102   127   128    1
   103   127   130    1
   104   127   126    1
   105    21    19   ar
   106   128   129    2
   107     4     3    2
   108    22    20   ar
   109   120   126   am
   110   120   119    1
   111    33    34    1
   112    33    32    1
   113    35    34    2
   114    25    26    1
   115    25    24    1
   116    19    18   ar
   117   122   119    1
   118   122   123    1
   119   119   118    1
   120   124   123    1
   121    27    26    2
   122    20    18   ar
   123    24    15   am
   124    18    17    1
   125    15    16    2
   126    15    14    1
   127    13    14    1
   128    17    14    1
