@<TRIPOS>MOLECULE
tmp/2vkuA01.pdb
 95 87 0 0 0
SMALL
GASTEIGER

@<TRIPOS>ATOM
      1  N         24.4240   52.7530   30.2100 N.3    91  ARG91      -0.1245
      2  CA        25.1440   51.6470   30.8250 C.3    91  ARG91       0.1563
      3  C         25.2410   50.4760   29.8430 C.2    91  ARG91       0.2260
      4  O         26.3280   49.9590   29.5780 O.2    91  ARG91      -0.2867
      5  CB        24.4190   51.1990   32.0960 C.3    91  ARG91       0.0307
      6  CG        24.4340   52.2230   33.2210 C.3    91  ARG91       0.0489
      7  CD        23.5630   51.7600   34.3790 C.3    91  ARG91       0.2205
      8  NE        23.9260   50.4190   34.8370 N.pl3  91  ARG91      -0.0865
      9  CZ        23.2410   49.7290   35.7470 C.cat  91  ARG91       0.5346
     10  NH1       22.1520   50.2540   36.3010 N.pl3  91  ARG91       0.1354
     11  NH2       23.6400   48.5120   36.0990 N.pl3  91  ARG91       0.1354
     12  N         27.7730   51.1910   27.2240 N.3    94  MET94      -0.1230
     13  CA        29.1630   51.0600   27.6370 C.3    94  MET94       0.1702
     14  C         29.5820   49.5960   27.7570 C.2    94  MET94       0.2592
     15  O         30.6450   49.2060   27.2690 O.2    94  MET94      -0.2718
     16  CB        29.3830   51.7670   28.9700 C.3    94  MET94       0.0401
     17  CG        29.0690   53.2410   28.9360 C.3    94  MET94       0.0596
     18  SD        29.5000   54.0370   30.4820 S.3    94  MET94      -0.1393
     19  CE        28.1130   53.5760   31.5140 C.3    94  MET94       0.0692
     20  N         28.7530   48.7840   28.4070 N.am   95  LEU95      -0.1980
     21  CA        29.0770   47.3730   28.5620 C.3    95  LEU95       0.1596
     22  C         29.2450   46.7250   27.1960 C.2    95  LEU95       0.2287
     23  O         30.2060   46.0000   26.9560 O.2    95  LEU95      -0.2864
     24  CB        27.9770   46.6460   29.3390 C.3    95  LEU95       0.0297
     25  CG        28.2160   45.1480   29.5740 C.3    95  LEU95       0.0022
     26  CD1       29.5050   44.9320   30.3700 C.3    95  LEU95       0.0001
     27  CD2       27.0260   44.5540   30.3110 C.3    95  LEU95       0.0001
     28  N         32.4580   47.6750   25.4470 N.3    98  ALA98      -0.1245
     29  CA        33.6350   47.1870   26.1430 C.3    98  ALA98       0.1562
     30  C         33.8170   45.6770   26.0620 C.2    98  ALA98       0.2260
     31  O         34.9460   45.1950   25.9360 O.2    98  ALA98      -0.2867
     32  CB        33.5820   47.6100   27.6060 C.3    98  ALA98       0.0290
     33  N         40.0950   45.4700   31.9010 N.3   220  MET220     -0.1245
     34  CA        39.2350   46.5850   32.2820 C.3   220  MET220      0.1570
     35  C         39.6800   47.3020   33.5520 C.2   220  MET220      0.2261
     36  O         39.4130   48.4880   33.7220 O.2   220  MET220     -0.2867
     37  CB        37.7940   46.1030   32.4450 C.3   220  MET220      0.0387
     38  CG        36.7620   47.2230   32.4720 C.3   220  MET220      0.0595
     39  SD        36.8540   48.2930   31.0040 S.3   220  MET220     -0.1393
     40  CE        37.1610   47.0930   29.6770 C.3   220  MET220      0.0692
     41  N         42.2820   49.7200   32.4910 N.3   223  VAL223     -0.1231
     42  CA        41.6290   50.8320   31.8160 C.3   223  VAL223      0.1692
     43  C         41.0660   51.8490   32.8110 C.2   223  VAL223      0.2591
     44  O         41.3500   53.0480   32.7150 O.2   223  VAL223     -0.2718
     45  CB        40.4890   50.3230   30.9050 C.3   223  VAL223      0.0266
     46  CG1       39.7520   51.4970   30.2850 C.3   223  VAL223      0.0020
     47  CG2       41.0620   49.4130   29.8230 C.3   223  VAL223      0.0020
     48  N         40.2800   51.3660   33.7720 N.am  224  LEU224     -0.1980
     49  CA        39.6660   52.2330   34.7730 C.3   224  LEU224      0.1596
     50  C         40.6750   52.9490   35.6690 C.2   224  LEU224      0.2287
     51  O         40.4960   54.1210   36.0080 O.2   224  LEU224     -0.2864
     52  CB        38.6820   51.4300   35.6290 C.3   224  LEU224      0.0297
     53  CG        37.4580   50.9220   34.8610 C.3   224  LEU224      0.0022
     54  CD1       36.5950   50.0880   35.7810 C.3   224  LEU224      0.0001
     55  CD2       36.6590   52.0990   34.3050 C.3   224  LEU224      0.0001
     56  N         42.1830   56.1920   34.0120 N.3   227  VAL227     -0.1245
     57  CA        41.3570   57.3650   33.7530 C.3   227  VAL227      0.1561
     58  C         41.6000   58.4850   34.7650 C.2   227  VAL227      0.2260
     59  O         41.6610   58.2440   35.9690 O.2   227  VAL227     -0.2867
     60  CB        39.8600   56.9950   33.7390 C.3   227  VAL227      0.0252
     61  CG1       39.0160   58.2330   33.4520 C.3   227  VAL227      0.0019
     62  CG2       39.6060   55.9390   32.6750 C.3   227  VAL227      0.0019
     63  N         38.6370   57.2580   39.2700 N.3   236  PHE236     -0.1241
     64  CA        37.9150   56.2760   40.0720 C.3   236  PHE236      0.1605
     65  C         38.6270   55.7080   41.2900 C.2   236  PHE236      0.2264
     66  O         39.8130   55.3820   41.2450 O.2   236  PHE236     -0.2867
     67  CB        37.4840   55.1110   39.1760 C.3   236  PHE236      0.0534
     68  CG        36.7070   55.5340   37.9570 C.ar  236  PHE236     -0.0203
     69  CD1       35.4480   56.1130   38.0810 C.ar  236  PHE236     -0.0042
     70  CD2       37.2320   55.3420   36.6830 C.ar  236  PHE236     -0.0042
     71  CE1       34.7250   56.4920   36.9590 C.ar  236  PHE236     -0.0003
     72  CE2       36.5140   55.7210   35.5540 C.ar  236  PHE236     -0.0003
     73  CZ        35.2600   56.2950   35.6920 C.ar  236  PHE236     -0.0000
     74  N         31.3230   49.3570   39.8680 N.3   244  MET244     -0.1245
     75  CA        31.1930   49.1760   38.4280 C.3   244  MET244      0.1570
     76  C         31.3680   47.7150   38.0360 C.2   244  MET244      0.2261
     77  O         30.6440   47.2050   37.1820 O.2   244  MET244     -0.2867
     78  CB        32.2190   50.0350   37.6890 C.3   244  MET244      0.0387
     79  CG        31.8950   51.5170   37.7070 C.3   244  MET244      0.0595
     80  SD        33.0740   52.4760   36.7430 S.3   244  MET244     -0.1393
     81  CE        34.1610   52.9680   38.0360 C.3   244  MET244      0.0692
     82  N         28.3370   45.8180   39.0610 N.3   247  SER247     -0.1202
     83  CA        27.2510   46.1220   38.1460 C.3   247  SER247      0.2020
     84  C         27.4170   45.3940   36.8130 C.2   247  SER247      0.2618
     85  O         26.4580   44.8400   36.2790 O.2   247  SER247     -0.2717
     86  CB        27.1800   47.6300   37.9170 C.3   247  SER247      0.2103
     87  OG        26.0430   47.9660   37.1490 O.3   247  SER247     -0.2182
     88  N         28.6350   45.4010   36.2790 N.am  248  MET248     -0.1979
     89  CA        28.9260   44.7350   35.0110 C.3   248  MET248      0.1605
     90  C         28.5340   43.2600   35.0400 C.2   248  MET248      0.2287
     91  O         28.0330   42.7180   34.0550 O.2   248  MET248     -0.2864
     92  CB        30.4210   44.8310   34.6850 C.3   248  MET248      0.0413
     93  CG        30.8630   46.1700   34.1440 C.3   248  MET248      0.0598
     94  SD        32.6570   46.3230   34.0450 S.3   248  MET248     -0.1393
     95  CE        32.9940   45.7110   32.3810 C.3   248  MET248      0.0692
@<TRIPOS>BOND
     1    28    29    1
     2    31    30    2
     3    30    29    1
     4    29    32    1
     5    23    22    2
     6    22    21    1
     7    12    13    1
     8    15    14    2
     9    13    14    1
    10    13    16    1
    11    14    20   am
    12    20    21    1
    13    21    24    1
    14    17    16    1
    15    17    18    1
    16    24    25    1
    17    25    27    1
    18    25    26    1
    19     4     3    2
    20    40    39    1
    21    47    45    1
    22     3     2    1
    23     1     2    1
    24    46    45    1
    25    18    19    1
    26     2     5    1
    27    45    42    1
    28    39    38    1
    29    42    41    1
    30    42    43    1
    31    33    34    1
    32     5     6    1
    33    34    37    1
    34    34    35    1
    35    95    94    1
    36    37    38    1
    37    62    60    1
    38    44    43    2
    39    43    48   am
    40     6     7    1
    41    61    60    1
    42    35    36    2
    43    60    57    1
    44    57    56    1
    45    57    58    1
    46    48    49    1
    47    94    93    1
    48    91    90    2
    49    93    92    1
    50    55    53    1
    51     7     8    1
    52    92    89    1
    53    58    59    2
    54    49    52    1
    55    49    50    1
    56     8     9    2
    57    53    52    1
    58    53    54    1
    59    89    90    1
    60    89    88    1
    61    72    73   ar
    62    72    70   ar
    63    50    51    2
    64    73    71   ar
    65     9    11    1
    66     9    10    1
    67    85    84    2
    68    88    84   am
    69    70    68   ar
    70    80    79    1
    71    80    81    1
    72    84    83    1
    73    71    69   ar
    74    87    86    1
    75    77    76    2
    76    78    79    1
    77    78    75    1
    78    86    83    1
    79    68    69   ar
    80    68    67    1
    81    76    75    1
    82    83    82    1
    83    75    74    1
    84    67    64    1
    85    63    64    1
    86    64    65    1
    87    66    65    2
