@<TRIPOS>MOLECULE
tmp/2vkuA00.pdb
 90 85 0 0 0
SMALL
GASTEIGER

@<TRIPOS>ATOM
      1  N         -2.7320   45.8500   55.9070 N.3    10  GLU10      -0.1231
      2  CA        -1.6580   46.8460   56.0210 C.3    10  GLU10       0.1699
      3  C         -0.4270   46.5810   55.1540 C.2    10  GLU10       0.2592
      4  O          0.1200   47.4880   54.5250 O.2    10  GLU10      -0.2718
      5  CB        -1.1830   46.9380   57.4780 C.3    10  GLU10       0.0402
      6  CG        -2.2540   47.3010   58.4850 C.3    10  GLU10       0.1161
      7  CD        -2.7980   48.7020   58.2780 C.2    10  GLU10       0.3649
      8  OE1       -2.0050   49.6690   58.3320 O.co2  10  GLU10      -0.2457
      9  OE2       -4.0230   48.8340   58.0630 O.co2  10  GLU10      -0.2457
     10  N          0.0070   45.3280   55.1470 N.am   11  HIS11      -0.1976
     11  CA         1.1990   44.9100   54.4190 C.3    11  HIS11       0.1656
     12  C          0.8930   44.5780   52.9680 C.2    11  HIS11       0.2291
     13  O          1.8040   44.5010   52.1360 O.2    11  HIS11      -0.2864
     14  CB         1.7960   43.6910   55.1250 C.3    11  HIS11       0.0771
     15  CG         1.7780   43.8000   56.6220 C.ar   11  HIS11       0.0820
     16  ND1        1.5490   42.7190   57.4460 N.ar   11  HIS11      -0.2267
     17  CD2        1.9510   44.8670   57.4410 C.ar   11  HIS11       0.1154
     18  CE1        1.5800   43.1150   58.7060 C.ar   11  HIS11       0.1986
     19  NE2        1.8230   44.4140   58.7310 N.ar   11  HIS11      -0.2212
     20  N          2.8510   41.7740   50.5360 N.3    14  LEU14      -0.1231
     21  CA         4.2900   41.7210   50.7790 C.3    14  LEU14       0.1693
     22  C          4.8070   40.3520   51.2030 C.2    14  LEU14       0.2591
     23  O          5.7930   39.8500   50.6540 O.2    14  LEU14      -0.2718
     24  CB         4.6850   42.7560   51.8310 C.3    14  LEU14       0.0284
     25  CG         6.1690   42.7790   52.2120 C.3    14  LEU14       0.0019
     26  CD1        7.0380   42.9530   50.9810 C.3    14  LEU14       0.0001
     27  CD2        6.4110   43.9060   53.2000 C.3    14  LEU14       0.0001
     28  N          4.1460   39.7400   52.1760 N.am   15  GLU15      -0.1979
     29  CA         4.5890   38.4380   52.6540 C.3    15  GLU15       0.1602
     30  C          4.4830   37.3510   51.5920 C.2    15  GLU15       0.2287
     31  O          5.3560   36.4940   51.4960 O.2    15  GLU15      -0.2864
     32  CB         3.8030   38.0310   53.9010 C.3    15  GLU15       0.0415
     33  CG         4.4570   36.9030   54.6830 C.3    15  GLU15       0.1163
     34  CD         5.9240   37.1880   54.9920 C.2    15  GLU15       0.3649
     35  OE1        6.2260   38.2930   55.5130 O.co2  15  GLU15      -0.2457
     36  OE2        6.7720   36.3040   54.7110 O.co2  15  GLU15      -0.2457
     37  N          7.2520   37.5900   49.1930 N.3    18  ARG18      -0.1245
     38  CA         8.5290   37.1080   49.7150 C.3    18  ARG18       0.1563
     39  C          8.6140   35.5900   49.8110 C.2    18  ARG18       0.2260
     40  O          9.6580   35.0530   50.1870 O.2    18  ARG18      -0.2867
     41  CB         8.7840   37.6640   51.1200 C.3    18  ARG18       0.0307
     42  CG         8.8240   39.1680   51.2360 C.3    18  ARG18       0.0489
     43  CD         9.0830   39.5420   52.6830 C.3    18  ARG18       0.2205
     44  NE        10.3980   39.0920   53.1310 N.pl3  18  ARG18      -0.0865
     45  CZ        10.6340   38.5240   54.3070 C.cat  18  ARG18       0.5346
     46  NH1        9.6380   38.3270   55.1580 N.pl3  18  ARG18       0.1354
     47  NH2       11.8670   38.1660   54.6380 N.pl3  18  ARG18       0.1354
     48  N          3.2760   46.6110   51.0130 N.3    41  ALA41      -0.1245
     49  CA         3.1280   47.5730   52.0930 C.3    41  ALA41       0.1562
     50  C          2.3360   48.7400   51.4910 C.2    41  ALA41       0.2260
     51  O          1.2130   48.5470   51.0210 O.2    41  ALA41      -0.2867
     52  CB         4.4920   48.0370   52.5950 C.3    41  ALA41       0.0290
     53  N         11.9910   42.8610   51.0310 N.3   174  LEU174     -0.1245
     54  CA        11.7600   43.8630   52.0710 C.3   174  LEU174      0.1561
     55  C         12.4530   45.1760   51.7070 C.2   174  LEU174      0.2260
     56  O         12.1810   46.2150   52.3090 O.2   174  LEU174     -0.2867
     57  CB        12.2730   43.3660   53.4290 C.3   174  LEU174      0.0270
     58  CG        11.3690   42.3580   54.1460 C.3   174  LEU174      0.0019
     59  CD1       12.0930   41.7260   55.3460 C.3   174  LEU174      0.0001
     60  CD2       10.1020   43.0780   54.5830 C.3   174  LEU174      0.0001
     61  N         10.4710   48.1980   51.2180 N.3   177  VAL177     -0.1245
     62  CA        10.0140   48.9040   52.4060 C.3   177  VAL177      0.1561
     63  C         11.1800   49.8390   52.7460 C.2   177  VAL177      0.2260
     64  O         11.0220   51.0570   52.8260 O.2   177  VAL177     -0.2867
     65  CB         9.7860   47.9400   53.5880 C.3   177  VAL177      0.0252
     66  CG1        9.5410   48.7220   54.8650 C.3   177  VAL177      0.0019
     67  CG2        8.6060   47.0360   53.2970 C.3   177  VAL177      0.0019
     68  N         16.6980   48.0150   56.3230 N.3   181  LEU181     -0.1231
     69  CA        16.0210   47.5090   57.5050 C.3   181  LEU181      0.1678
     70  C         17.0850   46.7570   58.2890 C.2   181  LEU181      0.2434
     71  O         18.0170   46.1960   57.7070 O.2   181  LEU181     -0.2733
     72  CB        14.8890   46.5590   57.1210 C.3   181  LEU181      0.0284
     73  CG        13.5700   47.1990   56.6740 C.3   181  LEU181      0.0019
     74  CD1       12.6130   46.1280   56.1820 C.3   181  LEU181      0.0001
     75  CD2       12.9600   47.9650   57.8360 C.3   181  LEU181      0.0001
     76  N         16.9750   46.7440   59.6230 N.am  182  PRO182     -0.2718
     77  CA        17.9810   46.0390   60.4190 C.3   182  PRO182      0.1535
     78  C         17.7730   44.5290   60.4620 C.2   182  PRO182      0.2598
     79  O         17.4040   43.9710   61.5010 O.2   182  PRO182     -0.2715
     80  CB        17.8520   46.6980   61.7890 C.3   182  PRO182      0.0310
     81  CG        16.3870   46.9790   61.8730 C.3   182  PRO182      0.0237
     82  CD        16.0480   47.5020   60.4850 C.3   182  PRO182      0.0939
     83  N         17.9900   43.8740   59.3240 N.am  183  ILE183     -0.1978
     84  CA        17.8510   42.4260   59.2410 C.3   183  ILE183      0.1596
     85  C         19.2190   41.8410   58.8880 C.2   183  ILE183      0.2287
     86  O         20.0320   42.4990   58.2310 O.2   183  ILE183     -0.2864
     87  CB        16.7940   42.0210   58.1920 C.3   183  ILE183      0.0276
     88  CG1       17.2050   42.4990   56.8000 C.3   183  ILE183      0.0022
     89  CG2       15.4490   42.6170   58.5700 C.3   183  ILE183      0.0022
     90  CD1       16.2410   42.0600   55.7100 C.3   183  ILE183      0.0001
@<TRIPOS>BOND
     1    37    38    1
     2    38    39    1
     3    38    41    1
     4    39    40    2
     5    20    21    1
     6    23    22    2
     7    21    22    1
     8    21    24    1
     9    26    25    1
    10    48    49    1
    11    51    50    2
    12    53    54    1
    13    41    42    1
    14    22    28   am
    15    61    62    1
    16    42    43    1
    17    50    49    1
    18    31    30    2
    19    30    29    1
    20    55    54    1
    21    55    56    2
    22    24    25    1
    23    54    57    1
    24    49    52    1
    25    13    12    2
    26    28    29    1
    27    25    27    1
    28    62    63    1
    29    62    65    1
    30    29    32    1
    31    43    44    1
    32    63    64    2
    33    12    11    1
    34    44    45    2
    35    67    65    1
    36    57    58    1
    37    65    66    1
    38    32    33    1
    39    58    60    1
    40    58    59    1
    41    45    47    1
    42    45    46    1
    43    11    14    1
    44    11    10    1
    45     4     3    2
    46    33    34    1
    47    36    34   ar
    48    34    35   ar
    49    14    15    1
    50    10     3   am
    51     3     2    1
    52    90    88    1
    53     1     2    1
    54     2     5    1
    55    74    73    1
    56    68    69    1
    57    15    17   ar
    58    15    16   ar
    59    73    72    1
    60    73    75    1
    61    88    87    1
    62    72    69    1
    63    17    19   ar
    64    16    18   ar
    65     5     6    1
    66    69    70    1
    67    71    70    2
    68     9     7   ar
    69    87    89    1
    70    87    84    1
    71    86    85    2
    72     7     8   ar
    73     7     6    1
    74    70    76   am
    75    18    19   ar
    76    85    84    1
    77    84    83    1
    78    83    78   am
    79    76    77    1
    80    76    82    1
    81    77    78    1
    82    77    80    1
    83    78    79    2
    84    82    81    1
    85    80    81    1
