@<TRIPOS>MOLECULE
tmp/2vkuA02.pdb
 100 94 0 0 0
SMALL
GASTEIGER

@<TRIPOS>ATOM
      1  N         19.7350   24.4690   21.2960 N.3   303  GLU303     -0.1245
      2  CA        19.1280   25.7890   21.4200 C.3   303  GLU303      0.1567
      3  C         17.6280   25.7480   21.6790 C.2   303  GLU303      0.2260
      4  O         17.1020   26.5890   22.4180 O.2   303  GLU303     -0.2867
      5  CB        19.4450   26.6480   20.2010 C.3   303  GLU303      0.0388
      6  CG        20.8670   27.1560   20.2610 C.3   303  GLU303      0.1160
      7  CD        21.1720   28.2150   19.2340 C.2   303  GLU303      0.3649
      8  OE1       20.5210   29.2820   19.2690 O.co2 303  GLU303     -0.2457
      9  OE2       22.0740   27.9800   18.4000 O.co2 303  GLU303     -0.2457
     10  N         17.2930   25.1030   25.2040 N.3   306  LEU306     -0.1231
     11  CA        17.5880   26.3120   25.9690 C.3   306  LEU306      0.1693
     12  C         16.3850   27.2610   25.9380 C.2   306  LEU306      0.2591
     13  O         15.9860   27.8150   26.9640 O.2   306  LEU306     -0.2718
     14  CB        18.8140   27.0270   25.3880 C.3   306  LEU306      0.0284
     15  CG        19.0750   28.4430   25.9220 C.3   306  LEU306      0.0019
     16  CD1       19.2500   28.4090   27.4410 C.3   306  LEU306      0.0001
     17  CD2       20.3180   29.0220   25.2480 C.3   306  LEU306      0.0001
     18  N         15.8130   27.4580   24.7550 N.am  307  LYS307     -0.1980
     19  CA        14.6520   28.3330   24.6300 C.3   307  LYS307      0.1596
     20  C         13.5100   27.8410   25.5160 C.2   307  LYS307      0.2287
     21  O         12.8330   28.6460   26.1610 O.2   307  LYS307     -0.2864
     22  CB        14.1730   28.3980   23.1770 C.3   307  LYS307      0.0298
     23  CG        15.0660   29.1780   22.2350 C.3   307  LYS307      0.0038
     24  CD        14.4440   29.2450   20.8370 C.3   307  LYS307      0.0206
     25  CE        15.2740   30.1130   19.8990 C.3   307  LYS307      0.1093
     26  NZ        14.6530   30.2630   18.5480 N.3   307  LYS307     -0.1314
     27  N         14.2900   28.4190   29.1420 N.3   310  LEU310     -0.1245
     28  CA        14.0820   29.8330   29.4450 C.3   310  LEU310      0.1561
     29  C         12.5930   30.1910   29.5550 C.2   310  LEU310      0.2260
     30  O         12.2090   31.0460   30.3620 O.2   310  LEU310     -0.2867
     31  CB        14.7570   30.7020   28.3770 C.3   310  LEU310      0.0270
     32  CG        16.2790   30.7960   28.5150 C.3   310  LEU310      0.0019
     33  CD1       16.8770   31.4370   27.2690 C.3   310  LEU310      0.0001
     34  CD2       16.6260   31.6050   29.7640 C.3   310  LEU310      0.0001
     35  N          8.2010   31.2670   19.8190 N.3   372  ASP372     -0.1239
     36  CA         8.9270   32.4070   20.3650 C.3   372  ASP372      0.1674
     37  C          8.8530   33.5860   19.3950 C.2   372  ASP372      0.2266
     38  O          8.7200   34.7440   19.8040 O.2   372  ASP372     -0.2867
     39  CB        10.3900   32.0220   20.6260 C.3   372  ASP372      0.1410
     40  CG        11.0930   31.4920   19.3820 C.2   372  ASP372      0.3668
     41  OD1       10.4550   30.7560   18.6030 O.co2 372  ASP372     -0.2456
     42  OD2       12.2880   31.7950   19.1870 O.co2 372  ASP372     -0.2456
     43  N          6.6370   35.8440   24.8820 N.3   379  TRP379     -0.1241
     44  CA         7.7760   34.9430   25.0620 C.3   379  TRP379      0.1605
     45  C          8.8490   35.9780   25.4010 C.2   379  TRP379      0.2264
     46  O          9.4540   36.5900   24.5110 O.2   379  TRP379     -0.2867
     47  CB         8.1390   34.2130   23.7690 C.3   379  TRP379      0.0550
     48  CG         9.1420   33.1160   24.0140 C.ar  379  TRP379      0.0003
     49  CD1        8.8840   31.8540   24.4780 C.ar  379  TRP379      0.0946
     50  CD2       10.5670   33.2140   23.8930 C.ar  379  TRP379      0.0152
     51  NE1       10.0600   31.1650   24.6560 N.ar  379  TRP379     -0.2442
     52  CE2       11.1080   31.9760   24.3050 C.ar  379  TRP379      0.0810
     53  CE3       11.4390   34.2320   23.4790 C.ar  379  TRP379      0.0012
     54  CZ2       12.4840   31.7250   24.3150 C.ar  379  TRP379      0.0191
     55  CZ3       12.8060   33.9840   23.4880 C.ar  379  TRP379      0.0001
     56  CH2       13.3170   32.7360   23.9040 C.ar  379  TRP379      0.0015
     57  N         14.1810   37.1180   27.9020 N.3   382  PHE382     -0.1227
     58  CA        15.2080   38.1520   27.7140 C.3   382  PHE382      0.1736
     59  C         14.5570   39.5250   27.5790 C.2   382  PHE382      0.2596
     60  O         15.2160   40.5030   27.2220 O.2   382  PHE382     -0.2718
     61  CB        16.0090   37.8980   26.4310 C.3   382  PHE382      0.0547
     62  CG        16.9950   36.7710   26.5280 C.ar  382  PHE382     -0.0202
     63  CD1       18.0590   36.8310   27.4210 C.ar  382  PHE382     -0.0042
     64  CD2       16.8820   35.6650   25.6980 C.ar  382  PHE382     -0.0042
     65  CE1       19.0010   35.8050   27.4810 C.ar  382  PHE382     -0.0003
     66  CE2       17.8150   34.6330   25.7480 C.ar  382  PHE382     -0.0003
     67  CZ        18.8790   34.7030   26.6420 C.ar  382  PHE382     -0.0000
     68  N         13.2630   39.5960   27.8590 N.am  383  GLY383     -0.1942
     69  CA        12.5540   40.8520   27.7080 C.3   383  GLY383      0.2014
     70  C         12.1830   41.0060   26.2420 C.2   383  GLY383      0.2638
     71  O         12.0730   40.0160   25.5190 O.2   383  GLY383     -0.2714
     72  N         11.9950   42.2430   25.7970 N.am  384  ALA384     -0.1977
     73  CA        11.6410   42.4980   24.4080 C.3   384  ALA384      0.1597
     74  C         11.7710   43.9830   24.0960 C.2   384  ALA384      0.2287
     75  O         11.9240   44.8060   25.0030 O.2   384  ALA384     -0.2864
     76  CB        10.2120   42.0240   24.1340 C.3   384  ALA384      0.0319
     77  N         15.2380   44.7600   25.5560 N.3   388  ARG388     -0.1245
     78  CA        15.7410   43.4140   25.3190 C.3   388  ARG388      0.1563
     79  C         17.1410   43.3330   25.9340 C.2   388  ARG388      0.2260
     80  O         17.9650   44.2300   25.7550 O.2   388  ARG388     -0.2867
     81  CB        15.7980   43.1210   23.8070 C.3   388  ARG388      0.0307
     82  CG        16.6680   41.9270   23.4160 C.3   388  ARG388      0.0489
     83  CD        16.5570   41.5850   21.9310 C.3   388  ARG388      0.2205
     84  NE        17.6680   40.7430   21.4800 N.pl3 388  ARG388     -0.0865
     85  CZ        17.6760   40.0230   20.3540 C.cat 388  ARG388      0.5346
     86  NH1       16.6290   40.0240   19.5390 N.pl3 388  ARG388      0.1354
     87  NH2       18.7380   39.2910   20.0400 N.pl3 388  ARG388      0.1354
     88  N         22.0610   39.0360   25.6410 N.3   392  ALA392     -0.1245
     89  CA        21.4270   37.8350   25.0920 C.3   392  ALA392      0.1562
     90  C         22.3590   36.9740   24.2420 C.2   392  ALA392      0.2260
     91  O         22.5510   35.7920   24.5300 O.2   392  ALA392     -0.2867
     92  CB        20.1940   38.2140   24.2870 C.3   392  ALA392      0.0290
     93  N         23.5790   33.2210   25.2270 N.3   396  ILE396     -0.1245
     94  CA        23.2920   32.0680   24.3680 C.3   396  ILE396      0.1561
     95  C         24.5940   31.3540   24.0010 C.2   396  ILE396      0.2260
     96  O         24.6890   30.1290   24.0840 O.2   396  ILE396     -0.2867
     97  CB        22.5520   32.5170   23.0900 C.3   396  ILE396      0.0252
     98  CG1       21.1560   33.0280   23.4610 C.3   396  ILE396      0.0019
     99  CG2       22.4550   31.3640   22.1080 C.3   396  ILE396      0.0019
    100  CD1       20.5050   33.8820   22.3840 C.3   396  ILE396      0.0001
@<TRIPOS>BOND
     1     9     7   ar
     2    26    25    1
     3    41    40   ar
     4    42    40   ar
     5     7     8   ar
     6     7     6    1
     7    40    39    1
     8    37    38    2
     9    37    36    1
    10    86    85    1
    11    35    36    1
    12    25    24    1
    13    87    85    1
    14     5     6    1
    15     5     2    1
    16    85    84    2
    17    36    39    1
    18    24    23    1
    19     1     2    1
    20     2     3    1
    21    84    83    1
    22     3     4    2
    23    83    82    1
    24    99    97    1
    25    23    22    1
    26   100    98    1
    27    97    98    1
    28    97    94    1
    29    22    19    1
    30    82    81    1
    31    53    55   ar
    32    53    50   ar
    33    55    56   ar
    34    47    48    1
    35    47    44    1
    36    81    78    1
    37    50    48   ar
    38    50    52   ar
    39    56    54   ar
    40    95    96    2
    41    95    94    1
    42    48    49   ar
    43    74    73    1
    44    74    75    2
    45    76    73    1
    46    90    91    2
    47    90    89    1
    48    92    89    1
    49    52    54   ar
    50    52    51   ar
    51    94    93    1
    52    73    72    1
    53    49    51   ar
    54    46    45    2
    55    19    18    1
    56    19    20    1
    57    18    12   am
    58    43    44    1
    59    44    45    1
    60    89    88    1
    61    10    11    1
    62    17    15    1
    63    78    77    1
    64    78    79    1
    65    14    15    1
    66    14    11    1
    67    20    21    2
    68    71    70    2
    69    64    66   ar
    70    64    62   ar
    71    66    67   ar
    72    80    79    2
    73    72    70   am
    74    15    16    1
    75    12    11    1
    76    12    13    2
    77    70    69    1
    78    61    62    1
    79    61    58    1
    80    62    63   ar
    81    67    65   ar
    82    60    59    2
    83    33    32    1
    84    63    65   ar
    85    59    58    1
    86    59    68   am
    87    69    68    1
    88    58    57    1
    89    31    32    1
    90    31    28    1
    91    32    34    1
    92    27    28    1
    93    28    29    1
    94    29    30    2
