@<TRIPOS>MOLECULE
tmp/2vl8C01.pdb
 92 85 0 0 0
SMALL
GASTEIGER

@<TRIPOS>ATOM
      1  N         24.2830  -33.5750   31.0140 N.3   266  ALA266     -0.1245
      2  CA        24.2570  -34.9000   30.3860 C.3   266  ALA266      0.1562
      3  C         25.6070  -35.2850   29.7730 C.2   266  ALA266      0.2260
      4  O         26.1190  -36.3900   29.9670 O.2   266  ALA266     -0.2867
      5  CB        23.1510  -34.9270   29.3080 C.3   266  ALA266      0.0290
      6  N         28.1800  -37.8620   30.9420 N.3   270  ASP270     -0.1239
      7  CA        28.7020  -38.7910   29.9210 C.3   270  ASP270      0.1674
      8  C         30.1900  -38.9940   30.0780 C.2   270  ASP270      0.2266
      9  O         30.6760  -40.1250   30.0450 O.2   270  ASP270     -0.2867
     10  CB        28.4250  -38.2780   28.5000 C.3   270  ASP270      0.1410
     11  CG        27.0040  -38.6260   27.9920 C.2   270  ASP270      0.3668
     12  OD1       26.3140  -39.5000   28.5810 O.co2 270  ASP270     -0.2456
     13  OD2       26.5940  -38.0400   26.9700 O.co2 270  ASP270     -0.2456
     14  N         31.1860  -40.5890   33.7330 N.3   273  ARG273     -0.1245
     15  CA        30.8090  -41.9820   33.9700 C.3   273  ARG273      0.1563
     16  C         31.8650  -42.9800   33.4710 C.2   273  ARG273      0.2260
     17  O         32.2520  -43.8950   34.1990 O.2   273  ARG273     -0.2867
     18  CB        29.4070  -42.2890   33.4200 C.3   273  ARG273      0.0307
     19  CG        29.2670  -42.4320   31.9270 C.3   273  ARG273      0.0489
     20  CD        27.7880  -42.5520   31.5390 C.3   273  ARG273      0.2205
     21  NE        27.0410  -41.3530   31.8910 N.pl3 273  ARG273     -0.0865
     22  CZ        25.8330  -41.0300   31.4500 C.cat 273  ARG273      0.5346
     23  NH1       25.1630  -41.8390   30.6430 N.pl3 273  ARG273      0.1354
     24  NH2       25.2930  -39.8820   31.8500 N.pl3 273  ARG273      0.1354
     25  N         22.0610  -44.4560   35.0960 N.3   286  ASP286     -0.1239
     26  CA        21.3130  -43.1640   35.1860 C.3   286  ASP286      0.1674
     27  C         20.3410  -43.2090   36.3650 C.2   286  ASP286      0.2266
     28  O         19.7890  -44.2740   36.6800 O.2   286  ASP286     -0.2867
     29  CB        20.4990  -42.8670   33.9240 C.3   286  ASP286      0.1410
     30  CG        21.3140  -42.1750   32.8400 C.2   286  ASP286      0.3668
     31  OD1       22.4730  -41.7950   33.1060 O.co2 286  ASP286     -0.2456
     32  OD2       20.7990  -42.0360   31.7110 O.co2 286  ASP286     -0.2456
     33  N         22.3450  -47.3480   24.2210 N.3   383  ILE383     -0.1231
     34  CA        22.0890  -46.1450   25.0010 C.3   383  ILE383      0.1692
     35  C         22.9200  -46.2340   26.3040 C.2   383  ILE383      0.2592
     36  O         22.8980  -47.2420   27.0070 O.2   383  ILE383     -0.2718
     37  CB        20.5790  -45.9610   25.2110 C.3   383  ILE383      0.0266
     38  CG1       20.2730  -44.6450   25.9260 C.3   383  ILE383      0.0019
     39  CG2       19.9700  -47.1800   25.8920 C.3   383  ILE383      0.0020
     40  CD1       18.7940  -44.3090   25.9870 C.3   383  ILE383      0.0001
     41  N         23.7170  -45.2110   26.5890 N.am  384  ASN384     -0.1960
     42  CA        24.7080  -45.3470   27.6490 C.3   384  ASN384      0.1819
     43  C         24.1130  -45.0620   29.0390 C.2   384  ASN384      0.2621
     44  O         24.8240  -44.6690   29.9590 O.2   384  ASN384     -0.2715
     45  CB        25.9390  -44.4690   27.3470 C.3   384  ASN384      0.1195
     46  CG        25.5710  -43.0080   27.1400 C.2   384  ASN384      0.2630
     47  OD1       24.4480  -42.6980   26.7100 O.2   384  ASN384     -0.2716
     48  ND2       26.5000  -42.0920   27.4820 N.am  384  ASN384     -0.0877
     49  N         22.8070  -45.2840   29.1800 N.am  385  GLN385     -0.1977
     50  CA        22.1030  -45.0450   30.4480 C.3   385  GLN385      0.1601
     51  C         22.4110  -46.1050   31.5290 C.2   385  GLN385      0.2287
     52  O         21.9840  -45.9550   32.6750 O.2   385  GLN385     -0.2864
     53  CB        20.5750  -44.9390   30.2350 C.3   385  GLN385      0.0394
     54  CG        19.8550  -46.2000   29.8590 C.3   385  GLN385      0.0908
     55  CD        18.4170  -45.9590   29.4020 C.2   385  GLN385      0.2608
     56  OE1       17.8770  -44.8480   29.5130 O.2   385  GLN385     -0.2717
     57  NE2       17.7990  -46.9850   28.8640 N.am  385  GLN385     -0.0878
     58  N         25.3910  -34.1420   21.0890 N.3   465  THR465     -0.1203
     59  CA        25.7920  -34.9060   22.2700 C.3   465  THR465      0.1994
     60  C         25.9910  -36.4160   22.0190 C.2   465  THR465      0.2617
     61  O         27.0080  -36.9870   22.4360 O.2   465  THR465     -0.2717
     62  CB        24.8420  -34.5990   23.4740 C.3   465  THR465      0.1784
     63  OG1       24.8670  -33.1850   23.7230 O.3   465  THR465     -0.2211
     64  CG2       25.2980  -35.3160   24.7370 C.3   465  THR465      0.0376
     65  N         25.0300  -37.0420   21.3330 N.am  466  ILE466     -0.1979
     66  CA        25.0550  -38.4830   21.0280 C.3   466  ILE466      0.1595
     67  C         26.3520  -38.8900   20.3250 C.2   466  ILE466      0.2287
     68  O         26.8770  -39.9880   20.5470 O.2   466  ILE466     -0.2864
     69  CB        23.8370  -38.8820   20.1660 C.3   466  ILE466      0.0276
     70  CG1       22.5320  -38.6940   20.9380 C.3   466  ILE466      0.0022
     71  CG2       23.9230  -40.3220   19.6910 C.3   466  ILE466      0.0022
     72  CD1       21.3330  -38.4730   20.0320 C.3   466  ILE466      0.0001
     73  N         28.0200  -39.4560   23.9250 N.3   470  GLY470     -0.1210
     74  CA        26.9630  -40.4500   24.1500 C.3   470  GLY470      0.1940
     75  C         27.0590  -41.7470   23.3650 C.2   470  GLY470      0.2453
     76  O         28.1520  -42.2040   23.0400 O.2   470  GLY470     -0.2732
     77  N         25.9020  -42.3820   23.0930 N.am  471  PRO471     -0.2728
     78  CA        25.8350  -43.6470   22.3870 C.3   471  PRO471      0.1401
     79  C         26.7860  -43.8180   21.1910 C.2   471  PRO471      0.2269
     80  O         27.3680  -44.9030   21.0250 O.2   471  PRO471     -0.2865
     81  CB        24.3760  -43.7030   21.9330 C.3   471  PRO471      0.0296
     82  CG        23.6410  -42.9430   22.9710 C.3   471  PRO471      0.0237
     83  CD        24.5620  -41.9090   23.5060 C.3   471  PRO471      0.0939
     84  N         11.9770  -42.2890   33.3930 N.3   515  GLU515     -0.1245
     85  CA        12.5910  -42.4250   32.0700 C.3   515  GLU515      0.1567
     86  C         11.5850  -42.1480   30.9410 C.2   515  GLU515      0.2260
     87  O         11.9330  -41.4660   29.9760 O.2   515  GLU515     -0.2867
     88  CB        13.2240  -43.7990   31.8970 C.3   515  GLU515      0.0388
     89  CG        13.5790  -44.1690   30.4650 C.3   515  GLU515      0.1160
     90  CD        14.7700  -43.3950   29.8660 C.2   515  GLU515      0.3649
     91  OE1       15.3680  -42.4930   30.5120 O.co2 515  GLU515     -0.2457
     92  OE2       15.1260  -43.6900   28.7140 O.co2 515  GLU515     -0.2457
@<TRIPOS>BOND
     1    71    69    1
     2    72    70    1
     3    69    70    1
     4    69    66    1
     5    67    68    2
     6    67    66    1
     7    80    79    2
     8    66    65    1
     9    58    59    1
    10    79    78    1
    11    65    60   am
    12    81    78    1
    13    81    82    1
    14    60    59    1
    15    60    61    2
    16    59    62    1
    17    78    77    1
    18    82    83    1
    19    76    75    2
    20    77    75   am
    21    77    83    1
    22    75    74    1
    23    62    63    1
    24    62    64    1
    25    73    74    1
    26    33    34    1
    27    34    37    1
    28    34    35    1
    29    37    39    1
    30    37    38    1
    31    38    40    1
    32    35    41   am
    33    35    36    2
    34    41    42    1
    35    47    46    2
    36    13    11   ar
    37    46    45    1
    38    46    48   am
    39    45    42    1
    40    42    43    1
    41    11    10    1
    42    11    12   ar
    43    10     7    1
    44    92    90   ar
    45    57    55   am
    46    43    49   am
    47    43    44    2
    48    49    50    1
    49     5     2    1
    50    55    56    2
    51    55    54    1
    52     3     4    2
    53     3     2    1
    54    54    53    1
    55    90    89    1
    56    90    91   ar
    57     7     8    1
    58     7     6    1
    59    87    86    2
    60     9     8    2
    61    53    50    1
    62     2     1    1
    63    50    51    1
    64    89    88    1
    65    23    22    1
    66    86    85    1
    67    22    24    1
    68    22    21    2
    69    51    52    2
    70    20    21    1
    71    20    19    1
    72    32    30   ar
    73    88    85    1
    74    19    18    1
    75    85    84    1
    76    30    31   ar
    77    30    29    1
    78    18    15    1
    79    16    15    1
    80    16    17    2
    81    14    15    1
    82    29    26    1
    83    25    26    1
    84    26    27    1
    85    27    28    2
