@<TRIPOS>MOLECULE
tmp/2vl8C00.pdb
 135 127 0 0 0
SMALL
GASTEIGER

@<TRIPOS>ATOM
      1  N         25.3290  -40.5310   39.2160 N.3   101  ILE101     -0.1231
      2  CA        25.9400  -39.2260   39.0590 C.3   101  ILE101      0.1692
      3  C         24.8170  -38.2300   39.0310 C.2   101  ILE101      0.2592
      4  O         23.8790  -38.3700   38.2540 O.2   101  ILE101     -0.2718
      5  CB        26.7540  -39.0920   37.6950 C.3   101  ILE101      0.0266
      6  CG1       28.0850  -39.8680   37.7210 C.3   101  ILE101      0.0019
      7  CG2       27.0530  -37.6100   37.3550 C.3   101  ILE101      0.0020
      8  CD1       28.7320  -40.0750   36.2720 C.3   101  ILE101      0.0001
      9  N         24.9000  -37.2260   39.9020 N.am  102  TRP102     -0.1962
     10  CA        24.0490  -36.0620   39.7710 C.3   102  TRP102      0.1771
     11  C         24.8320  -34.7730   40.0060 C.2   102  TRP102      0.2619
     12  O         25.2800  -34.4900   41.1130 O.2   102  TRP102     -0.2715
     13  CB        22.8060  -36.1620   40.6660 C.3   102  TRP102      0.0590
     14  CG        21.8500  -35.0940   40.3070 C.ar  102  TRP102      0.0006
     15  CD1       21.6830  -33.8950   40.9320 C.ar  102  TRP102      0.0946
     16  CD2       20.9680  -35.0970   39.1740 C.ar  102  TRP102      0.0152
     17  NE1       20.7340  -33.1520   40.2620 N.ar  102  TRP102     -0.2442
     18  CE2       20.2790  -33.8760   39.1820 C.ar  102  TRP102      0.0810
     19  CE3       20.6760  -36.0350   38.1740 C.ar  102  TRP102      0.0012
     20  CZ2       19.3240  -33.5570   38.2140 C.ar  102  TRP102      0.0191
     21  CZ3       19.7400  -35.7250   37.2260 C.ar  102  TRP102      0.0001
     22  CH2       19.0570  -34.5070   37.2520 C.ar  102  TRP102      0.0015
     23  N         25.0310  -34.0140   38.9430 N.am  103  ILE103     -0.1977
     24  CA        25.7940  -32.7670   38.9960 C.3   103  ILE103      0.1596
     25  C         24.9550  -31.5660   38.5030 C.2   103  ILE103      0.2287
     26  O         23.9810  -31.7270   37.7320 O.2   103  ILE103     -0.2864
     27  CB        27.0860  -32.8500   38.1520 C.3   103  ILE103      0.0276
     28  CG1       26.7730  -33.3220   36.7140 C.3   103  ILE103      0.0022
     29  CG2       28.1250  -33.7420   38.8410 C.3   103  ILE103      0.0022
     30  CD1       27.9610  -33.2560   35.7480 C.3   103  ILE103      0.0001
     31  N         22.7870  -25.3020   36.7100 N.3   139  ASN139     -0.1240
     32  CA        21.4120  -25.2020   36.2220 C.3   139  ASN139      0.1653
     33  C         20.7990  -23.8230   36.4470 C.2   139  ASN139      0.2266
     34  O         20.1270  -23.3130   35.5620 O.2   139  ASN139     -0.2867
     35  CB        20.5270  -26.3340   36.7640 C.3   139  ASN139      0.1155
     36  CG        20.7090  -27.6340   35.9790 C.2   139  ASN139      0.2627
     37  OD1       21.2790  -28.6030   36.4720 O.2   139  ASN139     -0.2716
     38  ND2       20.2290  -27.6490   34.7490 N.am  139  ASN139     -0.0877
     39  N         24.8960  -30.8940   31.3240 N.3   265  LEU265     -0.1231
     40  CA        25.1990  -31.8190   32.4200 C.3   265  LEU265      0.1693
     41  C         25.1100  -33.2730   32.0110 C.2   265  LEU265      0.2591
     42  O         25.7720  -34.1150   32.6120 O.2   265  LEU265     -0.2718
     43  CB        24.2940  -31.5690   33.6460 C.3   265  LEU265      0.0284
     44  CG        24.4920  -30.3210   34.5250 C.3   265  LEU265      0.0019
     45  CD1       25.9550  -29.9290   34.6720 C.3   265  LEU265      0.0001
     46  CD2       23.6850  -29.1340   34.0060 C.3   265  LEU265      0.0001
     47  N         24.2830  -33.5750   31.0140 N.am  266  ALA266     -0.1980
     48  CA        24.2570  -34.9000   30.3860 C.3   266  ALA266      0.1597
     49  C         25.6070  -35.2850   29.7730 C.2   266  ALA266      0.2287
     50  O         26.1190  -36.3900   29.9670 O.2   266  ALA266     -0.2864
     51  CB        23.1510  -34.9270   29.3080 C.3   266  ALA266      0.0319
     52  N         28.3260  -35.5760   32.6180 N.3   269  SER269     -0.1217
     53  CA        28.0390  -36.8950   33.1800 C.3   269  SER269      0.1889
     54  C         28.4410  -38.0270   32.2440 C.2   269  SER269      0.2288
     55  O         28.9740  -39.0380   32.7000 O.2   269  SER269     -0.2866
     56  CB        26.5480  -37.0010   33.5190 C.3   269  SER269      0.2089
     57  OG        26.1900  -38.3140   33.9230 O.3   269  SER269     -0.2183
     58  N         31.1860  -40.5890   33.7330 N.3   273  ARG273     -0.1245
     59  CA        30.8090  -41.9820   33.9700 C.3   273  ARG273      0.1563
     60  C         31.8650  -42.9800   33.4710 C.2   273  ARG273      0.2260
     61  O         32.2520  -43.8950   34.1990 O.2   273  ARG273     -0.2867
     62  CB        29.4070  -42.2890   33.4200 C.3   273  ARG273      0.0307
     63  CG        29.2670  -42.4320   31.9270 C.3   273  ARG273      0.0489
     64  CD        27.7880  -42.5520   31.5390 C.3   273  ARG273      0.2205
     65  NE        27.0410  -41.3530   31.8910 N.pl3 273  ARG273     -0.0865
     66  CZ        25.8330  -41.0300   31.4500 C.cat 273  ARG273      0.5346
     67  NH1       25.1630  -41.8390   30.6430 N.pl3 273  ARG273      0.1354
     68  NH2       25.2930  -39.8820   31.8500 N.pl3 273  ARG273      0.1354
     69  N         27.5170  -48.6340   36.0510 N.3   284  TYR284     -0.1241
     70  CA        27.0170  -47.2660   36.0230 C.3   284  TYR284      0.1605
     71  C         25.5300  -47.2680   35.7080 C.2   284  TYR284      0.2264
     72  O         25.1090  -47.9500   34.7670 O.2   284  TYR284     -0.2867
     73  CB        27.7260  -46.3760   34.9700 C.3   284  TYR284      0.0534
     74  CG        26.9840  -45.0410   34.8440 C.ar  284  TYR284     -0.0201
     75  CD1       27.1970  -43.9980   35.7770 C.ar  284  TYR284     -0.0009
     76  CD2       25.9990  -44.8570   33.8700 C.ar  284  TYR284     -0.0009
     77  CE1       26.4630  -42.7850   35.7020 C.ar  284  TYR284      0.0417
     78  CE2       25.2750  -43.6730   33.7940 C.ar  284  TYR284      0.0417
     79  CZ        25.5040  -42.6560   34.7100 C.ar  284  TYR284      0.1957
     80  OH        24.7800  -41.5100   34.6040 O.3   284  TYR284     -0.2866
     81  N         22.0610  -44.4560   35.0960 N.3   286  ASP286     -0.1225
     82  CA        21.3130  -43.1640   35.1860 C.3   286  ASP286      0.1805
     83  C         20.3410  -43.2090   36.3650 C.2   286  ASP286      0.2598
     84  O         19.7890  -44.2740   36.6800 O.2   286  ASP286     -0.2718
     85  CB        20.4990  -42.8670   33.9240 C.3   286  ASP286      0.1424
     86  CG        21.3140  -42.1750   32.8400 C.2   286  ASP286      0.3668
     87  OD1       22.4730  -41.7950   33.1060 O.co2 286  ASP286     -0.2456
     88  OD2       20.7990  -42.0360   31.7110 O.co2 286  ASP286     -0.2456
     89  N         20.1090  -42.0630   37.0050 N.am  287  VAL287     -0.1966
     90  CA        19.2590  -42.0250   38.2170 C.3   287  VAL287      0.1727
     91  C         17.8110  -42.4230   37.9750 C.2   287  VAL287      0.2616
     92  O         17.0620  -42.6630   38.9550 O.2   287  VAL287     -0.2715
     93  CB        19.3330  -40.6690   39.0110 C.3   287  VAL287      0.0290
     94  CG1       20.7210  -40.4410   39.5520 C.3   287  VAL287      0.0023
     95  CG2       18.8360  -39.4770   38.1810 C.3   287  VAL287      0.0023
     96  N         17.4310  -42.5370   36.6910 N.am  288  ASP288     -0.1971
     97  CA        16.0440  -42.8590   36.3010 C.3   288  ASP288      0.1709
     98  C         15.8290  -44.3450   35.9860 C.2   288  ASP288      0.2293
     99  O         14.7480  -44.7510   35.4890 O.2   288  ASP288     -0.2864
    100  CB        15.5390  -41.9510   35.1600 C.3   288  ASP288      0.1436
    101  CG        16.3710  -42.0770   33.8530 C.2   288  ASP288      0.3671
    102  OD1       17.2350  -42.9960   33.6920 O.co2 288  ASP288     -0.2456
    103  OD2       16.1410  -41.2380   32.9620 O.co2 288  ASP288     -0.2456
    104  N         22.3450  -47.3480   24.2210 N.3   383  ILE383     -0.1245
    105  CA        22.0890  -46.1450   25.0010 C.3   383  ILE383      0.1561
    106  C         22.9200  -46.2340   26.3040 C.2   383  ILE383      0.2260
    107  O         22.8980  -47.2420   27.0070 O.2   383  ILE383     -0.2867
    108  CB        20.5790  -45.9610   25.2110 C.3   383  ILE383      0.0252
    109  CG1       20.2730  -44.6450   25.9260 C.3   383  ILE383      0.0019
    110  CG2       19.9700  -47.1800   25.8920 C.3   383  ILE383      0.0019
    111  CD1       18.7940  -44.3090   25.9870 C.3   383  ILE383      0.0001
    112  N         22.8070  -45.2840   29.1800 N.3   385  GLN385     -0.1245
    113  CA        22.1030  -45.0450   30.4480 C.3   385  GLN385      0.1566
    114  C         22.4110  -46.1050   31.5290 C.2   385  GLN385      0.2260
    115  O         21.9840  -45.9550   32.6750 O.2   385  GLN385     -0.2867
    116  CB        20.5750  -44.9390   30.2350 C.3   385  GLN385      0.0367
    117  CG        19.8550  -46.2000   29.8590 C.3   385  GLN385      0.0905
    118  CD        18.4170  -45.9590   29.4020 C.2   385  GLN385      0.2608
    119  OE1       17.8770  -44.8480   29.5130 O.2   385  GLN385     -0.2717
    120  NE2       17.7990  -46.9850   28.8640 N.am  385  GLN385     -0.0878
    121  N         11.9770  -42.2890   33.3930 N.3   515  GLU515     -0.1245
    122  CA        12.5910  -42.4250   32.0700 C.3   515  GLU515      0.1567
    123  C         11.5850  -42.1480   30.9410 C.2   515  GLU515      0.2260
    124  O         11.9330  -41.4660   29.9760 O.2   515  GLU515     -0.2867
    125  CB        13.2240  -43.7990   31.8970 C.3   515  GLU515      0.0388
    126  CG        13.5790  -44.1690   30.4650 C.3   515  GLU515      0.1160
    127  CD        14.7700  -43.3950   29.8660 C.2   515  GLU515      0.3649
    128  OE1       15.3680  -42.4930   30.5120 O.co2 515  GLU515     -0.2457
    129  OE2       15.1260  -43.6900   28.7140 O.co2 515  GLU515     -0.2457
    130  N         11.3490  -38.5380   30.6690 N.3   518  SER518     -0.1217
    131  CA        12.5710  -37.9600   30.1020 C.3   518  SER518      0.1889
    132  C         12.7500  -38.3120   28.6230 C.2   518  SER518      0.2288
    133  O         13.5940  -37.7230   27.9360 O.2   518  SER518     -0.2866
    134  CB        13.8240  -38.3870   30.9140 C.3   518  SER518      0.2089
    135  OG        14.5130  -39.5290   30.3780 O.3   518  SER518     -0.2183
@<TRIPOS>BOND
     1   104   105    1
     2   105   108    1
     3   105   106    1
     4   108   110    1
     5   108   109    1
     6   109   111    1
     7   106   107    2
     8   133   132    2
     9   132   131    1
    10   129   127   ar
    11   120   118   am
    12   112   113    1
    13    51    48    1
    14   118   119    2
    15   118   117    1
    16    49    50    2
    17    49    48    1
    18   117   116    1
    19   127   126    1
    20   127   128   ar
    21   124   123    2
    22   131   130    1
    23   131   134    1
    24   116   113    1
    25   135   134    1
    26    48    47    1
    27   113   114    1
    28   126   125    1
    29    67    66    1
    30   123   122    1
    31    47    41   am
    32    39    40    1
    33    66    68    1
    34    66    65    2
    35   114   115    2
    36    64    65    1
    37    64    63    1
    38    88    86   ar
    39   125   122    1
    40    63    62    1
    41    41    40    1
    42    41    42    2
    43   122   121    1
    44    54    55    2
    45    54    53    1
    46    40    43    1
    47    52    53    1
    48    86    87   ar
    49    86    85    1
    50   103   101   ar
    51    53    56    1
    52    62    59    1
    53    60    59    1
    54    60    61    2
    55    56    57    1
    56    43    44    1
    57   102   101   ar
    58    58    59    1
    59    78    76   ar
    60    78    79   ar
    61   101   100    1
    62    76    74   ar
    63    85    82    1
    64    46    44    1
    65    44    45    1
    66    80    79    1
    67    79    77   ar
    68    38    36   am
    69    72    71    2
    70    74    73    1
    71    74    75   ar
    72    73    70    1
    73    81    82    1
    74   100    97    1
    75    82    83    1
    76    99    98    2
    77    34    33    2
    78    77    75   ar
    79    71    70    1
    80    30    28    1
    81    36    37    2
    82    36    35    1
    83    98    97    1
    84    70    69    1
    85    32    33    1
    86    32    31    1
    87    32    35    1
    88     8     6    1
    89    97    96    1
    90    83    84    2
    91    83    89   am
    92    96    91   am
    93    28    27    1
    94    89    90    1
    95    21    22   ar
    96    21    19   ar
    97    22    20   ar
    98     7     5    1
    99     5     6    1
   100     5     2    1
   101    26    25    2
   102    91    90    1
   103    91    92    2
   104    27    29    1
   105    27    24    1
   106    19    16   ar
   107    95    93    1
   108    20    18   ar
   109    90    93    1
   110     4     3    2
   111    25    24    1
   112    23    24    1
   113    23    11   am
   114    93    94    1
   115     3     2    1
   116     3     9   am
   117     2     1    1
   118    16    18   ar
   119    16    14   ar
   120    18    17   ar
   121    10     9    1
   122    10    11    1
   123    10    13    1
   124    11    12    2
   125    17    15   ar
   126    14    13    1
   127    14    15   ar
