@<TRIPOS>MOLECULE
tmp/2vlaA00.pdb
 103 102 0 0 0
SMALL
GASTEIGER

@<TRIPOS>ATOM
      1  N         13.0020   28.2110   -9.8200 N.3   134  GLN134     -0.1231
      2  CA        13.6160   28.3750   -8.4810 C.3   134  GLN134      0.1698
      3  C         13.3300   29.7580   -7.9560 C.2   134  GLN134      0.2592
      4  O         13.8920   30.7370   -8.4110 O.2   134  GLN134     -0.2718
      5  CB        15.1390   28.1000   -8.4610 C.3   134  GLN134      0.0381
      6  CG        15.8480   28.3380   -9.6880 C.3   134  GLN134      0.0905
      7  CD        17.3450   27.9910   -9.5550 C.2   134  GLN134      0.2608
      8  OE1       17.8270   27.5910   -8.4710 O.2   134  GLN134     -0.2717
      9  NE2       18.0880   28.1650  -10.6440 N.am  134  GLN134     -0.0878
     10  N         12.3970   29.8380   -7.0120 N.am  135  ILE135     -0.1980
     11  CA        11.9630   31.1110   -6.5070 C.3   135  ILE135      0.1595
     12  C         11.3060   30.9790   -5.1370 C.2   135  ILE135      0.2287
     13  O         10.6310   29.9850   -4.8490 O.2   135  ILE135     -0.2864
     14  CB        10.9640   31.7780   -7.4960 C.3   135  ILE135      0.0276
     15  CG1       10.8220   33.2730   -7.1960 C.3   135  ILE135      0.0022
     16  CG2        9.5990   31.0560   -7.4640 C.3   135  ILE135      0.0022
     17  CD1       12.0320   34.1020   -7.6160 C.3   135  ILE135      0.0001
     18  N          9.3250   37.5690   -3.1780 N.3   140  TYR140     -0.1241
     19  CA         9.3850   38.2120   -4.4510 C.3   140  TYR140      0.1605
     20  C          8.1630   39.1350   -4.6910 C.2   140  TYR140      0.2264
     21  O          8.2890   40.2740   -5.1120 O.2   140  TYR140     -0.2867
     22  CB         9.5290   37.1840   -5.5820 C.3   140  TYR140      0.0534
     23  CG         9.9620   37.8000   -6.8850 C.ar  140  TYR140     -0.0201
     24  CD1        9.0360   38.3250   -7.7480 C.ar  140  TYR140     -0.0009
     25  CD2       11.3290   37.9150   -7.2300 C.ar  140  TYR140     -0.0009
     26  CE1        9.3980   38.9090   -8.8960 C.ar  140  TYR140      0.0417
     27  CE2       11.6920   38.5050   -8.3920 C.ar  140  TYR140      0.0417
     28  CZ        10.7350   39.0100   -9.2300 C.ar  140  TYR140      0.1957
     29  OH        11.0320   39.6240  -10.4190 O.3   140  TYR140     -0.2866
     30  N         11.8380   31.3130  -12.8510 N.3   172  GLN172     -0.1231
     31  CA        13.2140   30.8010  -12.9750 C.3   172  GLN172      0.1698
     32  C         14.2130   31.6210  -12.1980 C.2   172  GLN172      0.2593
     33  O         15.4060   31.2710  -12.1350 O.2   172  GLN172     -0.2718
     34  CB        13.6200   30.7710  -14.4370 C.3   172  GLN172      0.0381
     35  CG        12.8850   29.7200  -15.2610 C.3   172  GLN172      0.0905
     36  CD        13.2250   29.8050  -16.7140 C.2   172  GLN172      0.2608
     37  OE1       13.3730   30.8970  -17.2540 O.2   172  GLN172     -0.2717
     38  NE2       13.3480   28.6390  -17.3760 N.am  172  GLN172     -0.0878
     39  N         13.7820   32.7160  -11.6120 N.am  173  GLY173     -0.1942
     40  CA        14.6970   33.5320  -10.8160 C.3   173  GLY173      0.2014
     41  C         15.6410   34.3900  -11.6610 C.2   173  GLY173      0.2639
     42  O         16.7090   34.7610  -11.2040 O.2   173  GLY173     -0.2714
     43  N         15.2250   34.7470  -12.8690 N.am  174  LYS174     -0.1963
     44  CA        16.0730   35.5050  -13.7870 C.3   174  LYS174      0.1728
     45  C         15.8530   37.0160  -13.7290 C.2   174  LYS174      0.2616
     46  O         16.6360   37.7820  -14.2900 O.2   174  LYS174     -0.2715
     47  CB        15.8370   35.0210  -15.2070 C.3   174  LYS174      0.0311
     48  CG        16.3760   33.6080  -15.4710 C.3   174  LYS174      0.0038
     49  CD        16.0620   33.1770  -16.8720 C.3   174  LYS174      0.0206
     50  CE        16.4790   31.7470  -17.1310 C.3   174  LYS174      0.1093
     51  NZ        16.0080   31.2680  -18.4720 N.3   174  LYS174     -0.1314
     52  N         14.7590   37.4450  -13.0890 N.am  175  ILE175     -0.1963
     53  CA        14.2600   38.8030  -13.2750 C.3   175  ILE175      0.1727
     54  C         14.1940   39.5700  -11.9550 C.2   175  ILE175      0.2616
     55  O         13.6270   39.0770  -10.9850 O.2   175  ILE175     -0.2715
     56  CB        12.8160   38.7620  -13.8600 C.3   175  ILE175      0.0290
     57  CG1       12.7520   37.8930  -15.1330 C.3   175  ILE175      0.0022
     58  CG2       12.3090   40.1750  -14.1270 C.3   175  ILE175      0.0023
     59  CD1       13.6830   38.3760  -16.2740 C.3   175  ILE175      0.0001
     60  N         14.6870   40.8160  -11.9720 N.am  176  LYS176     -0.1977
     61  CA        14.5700   41.7180  -10.8130 C.3   176  LYS176      0.1596
     62  C         13.1900   42.4070  -10.7660 C.2   176  LYS176      0.2287
     63  O         12.6340   42.7750  -11.7980 O.2   176  LYS176     -0.2864
     64  CB        15.6680   42.7660  -10.8460 C.3   176  LYS176      0.0298
     65  CG        17.0810   42.1550  -10.7940 C.3   176  LYS176      0.0038
     66  CD        18.1130   43.1600  -10.3600 C.3   176  LYS176      0.0206
     67  CE        19.4930   42.5090  -10.2230 C.3   176  LYS176      0.1093
     68  NZ        19.6100   41.6580   -8.9900 N.3   176  LYS176     -0.1314
     69  N         13.8660   38.2000   -1.3980 N.3   247  TRP247     -0.1227
     70  CA        13.4110   38.0530   -2.7750 C.3   247  TRP247      0.1737
     71  C         14.4540   37.5150   -3.7240 C.2   247  TRP247      0.2596
     72  O         14.1200   36.8250   -4.7030 O.2   247  TRP247     -0.2718
     73  CB        12.8640   39.3700   -3.3190 C.3   247  TRP247      0.0564
     74  CG        13.9110   40.4540   -3.5660 C.ar  247  TRP247      0.0003
     75  CD1       14.2290   41.4910   -2.7320 C.ar  247  TRP247      0.0946
     76  CD2       14.7260   40.6420   -4.7530 C.ar  247  TRP247      0.0152
     77  NE1       15.1940   42.2800   -3.3050 N.ar  247  TRP247     -0.2442
     78  CE2       15.4920   41.7900   -4.5490 C.ar  247  TRP247      0.0810
     79  CE3       14.8710   39.9470   -5.9460 C.ar  247  TRP247      0.0012
     80  CZ2       16.4070   42.2450   -5.4870 C.ar  247  TRP247      0.0191
     81  CZ3       15.8040   40.3870   -6.8620 C.ar  247  TRP247      0.0001
     82  CH2       16.5340   41.5340   -6.6370 C.ar  247  TRP247      0.0015
     83  N         15.7190   37.8600   -3.4730 N.am  248  GLY248     -0.1942
     84  CA        16.8150   37.4700   -4.3700 C.3   248  GLY248      0.2014
     85  C         17.5180   36.1850   -3.9940 C.2   248  GLY248      0.2639
     86  O         18.4630   35.7780   -4.6730 O.2   248  GLY248     -0.2714
     87  N         17.0440   35.5240   -2.9420 N.am  249  ASN249     -0.1958
     88  CA        17.6540   34.2890   -2.4660 C.3   249  ASN249      0.1819
     89  C         17.2160   33.0800   -3.2760 C.2   249  ASN249      0.2621
     90  O         16.0320   32.9260   -3.5870 O.2   249  ASN249     -0.2715
     91  CB        17.3030   34.0480   -1.0050 C.3   249  ASN249      0.1195
     92  CG        18.0860   34.9340   -0.0530 C.2   249  ASN249      0.2630
     93  OD1       18.2690   36.1250   -0.3060 O.2   249  ASN249     -0.2716
     94  ND2       18.5150   34.3590    1.0880 N.am  249  ASN249     -0.0877
     95  N         18.1220   32.1600   -3.5140 N.am  250  LYS250     -0.1977
     96  CA        17.7500   30.8510   -3.9680 C.3   250  LYS250      0.1596
     97  C         16.8100   30.2430   -2.9340 C.2   250  LYS250      0.2287
     98  O         16.9170   30.5470   -1.7550 O.2   250  LYS250     -0.2864
     99  CB        19.0120   29.9820   -4.1410 C.3   250  LYS250      0.0298
    100  CG        19.6950   30.1350   -5.4690 C.3   250  LYS250      0.0038
    101  CD        20.7060   29.0090   -5.7070 C.3   250  LYS250      0.0206
    102  CE        20.7870   28.6370   -7.1810 C.3   250  LYS250      0.1093
    103  NZ        21.8320   29.4260   -7.8990 N.3   250  LYS250     -0.1314
@<TRIPOS>BOND
     1    51    50    1
     2    38    36   am
     3    37    36    2
     4    50    49    1
     5    49    48    1
     6    36    35    1
     7    59    57    1
     8    48    47    1
     9    35    34    1
    10    47    44    1
    11    57    56    1
    12    34    31    1
    13    46    45    2
    14    58    56    1
    15    56    53    1
    16    44    45    1
    17    44    43    1
    18    45    52   am
    19    53    52    1
    20    53    54    1
    21    31    30    1
    22    31    32    1
    23    43    41   am
    24    32    33    2
    25    32    39   am
    26    60    54   am
    27    60    61    1
    28    54    55    2
    29    63    62    2
    30    41    42    2
    31    41    40    1
    32    39    40    1
    33    64    61    1
    34    64    65    1
    35    61    62    1
    36    65    66    1
    37     9     7   am
    38    29    28    1
    39    66    67    1
    40    67    68    1
    41     1     2    1
    42     6     7    1
    43     6     5    1
    44     7     8    2
    45    28    26   ar
    46    28    27   ar
    47    26    24   ar
    48     2     5    1
    49     2     3    1
    50     4     3    2
    51    27    25   ar
    52     3    10   am
    53   103   102    1
    54    24    23   ar
    55    17    15    1
    56    14    16    1
    57    14    15    1
    58    14    11    1
    59    25    23   ar
    60   102   101    1
    61    10    11    1
    62    23    22    1
    63    81    82   ar
    64    81    79   ar
    65    82    80   ar
    66    11    12    1
    67    79    76   ar
    68   101   100    1
    69    22    19    1
    70    80    78   ar
    71   100    99    1
    72    12    13    2
    73    21    20    2
    74    76    78   ar
    75    76    74   ar
    76    72    71    2
    77    20    19    1
    78    86    85    2
    79    78    77   ar
    80    19    18    1
    81    84    85    1
    82    84    83    1
    83    99    96    1
    84    85    87   am
    85    96    95    1
    86    96    97    1
    87    71    83   am
    88    71    70    1
    89    90    89    2
    90    74    73    1
    91    74    75   ar
    92    95    89   am
    93    73    70    1
    94    77    75   ar
    95    89    88    1
    96    87    88    1
    97    97    98    2
    98    70    69    1
    99    88    91    1
   100    91    92    1
   101    93    92    2
   102    92    94   am
