@<TRIPOS>MOLECULE
tmp/2vlcA00.pdb
 99 96 0 0 0
SMALL
GASTEIGER

@<TRIPOS>ATOM
      1  N        -11.6930  -12.4530   34.0870 N.3   217  PHE217     -0.1227
      2  CA       -10.3320  -12.9380   34.3850 C.3   217  PHE217      0.1736
      3  C         -9.6270  -11.8600   35.1500 C.2   217  PHE217      0.2596
      4  O         -9.9300  -10.7080   34.9630 O.2   217  PHE217     -0.2718
      5  CB        -9.5020  -13.1750   33.1210 C.3   217  PHE217      0.0547
      6  CG        -9.9500  -14.3160   32.2520 C.ar  217  PHE217     -0.0202
      7  CD1      -10.9310  -15.2070   32.6400 C.ar  217  PHE217     -0.0042
      8  CD2       -9.3490  -14.5080   31.0230 C.ar  217  PHE217     -0.0042
      9  CE1      -11.3160  -16.2400   31.7930 C.ar  217  PHE217     -0.0003
     10  CE2       -9.7110  -15.5430   30.1970 C.ar  217  PHE217     -0.0003
     11  CZ       -10.6840  -16.3960   30.5670 C.ar  217  PHE217     -0.0000
     12  N         -8.6620  -12.2130   35.9820 N.am  218  SER218     -0.1938
     13  CA        -7.8520  -11.1750   36.5990 C.3   218  SER218      0.2055
     14  C         -6.7670  -10.6550   35.6520 C.2   218  SER218      0.2644
     15  O         -6.3630   -9.4910   35.7470 O.2   218  SER218     -0.2714
     16  CB        -7.2340  -11.6680   37.8990 C.3   218  SER218      0.2130
     17  OG        -6.3430  -12.7330   37.6340 O.3   218  SER218     -0.2179
     18  N         -6.2930  -11.5320   34.7650 N.am  219  SER219     -0.1936
     19  CA        -5.3610  -11.1870   33.7130 C.3   219  SER219      0.2040
     20  C         -5.9100  -11.7860   32.4310 C.2   219  SER219      0.2485
     21  O         -6.3660  -12.9380   32.4490 O.2   219  SER219     -0.2729
     22  CB        -3.9850  -11.7860   33.9820 C.3   219  SER219      0.2129
     23  OG        -3.5210  -11.4160   35.2430 O.3   219  SER219     -0.2179
     24  N         -5.8670  -11.0110   31.3030 N.am  220  PRO220     -0.2726
     25  CA        -6.1510  -11.6450   29.9960 C.3   220  PRO220      0.1402
     26  C         -5.1390  -12.7360   29.6140 C.2   220  PRO220      0.2269
     27  O         -3.9840  -12.7240   30.0540 O.2   220  PRO220     -0.2865
     28  CB        -6.1230  -10.4670   28.9830 C.3   220  PRO220      0.0296
     29  CG        -5.4290   -9.3610   29.6590 C.3   220  PRO220      0.0237
     30  CD        -5.6000   -9.5580   31.1600 C.3   220  PRO220      0.0939
     31  N        -11.1630   -7.8070   39.6920 N.3   264  PRO264     -0.2102
     32  CA       -10.5650   -7.1820   38.5210 C.3   264  PRO264      0.1504
     33  C        -11.1900   -5.8430   38.1930 C.2   264  PRO264      0.2576
     34  O        -12.3790   -5.6170   38.4060 O.2   264  PRO264     -0.2718
     35  CB       -10.8260   -8.1820   37.3960 C.3   264  PRO264      0.0282
     36  CG       -11.7150   -9.2050   37.9290 C.3   264  PRO264      0.0208
     37  CD       -12.1180   -8.8580   39.3240 C.3   264  PRO264      0.0893
     38  N        -10.3480   -4.9670   37.6910 N.am  265  THR265     -0.1939
     39  CA       -10.7750   -3.7210   37.1190 C.3   265  THR265      0.2028
     40  C        -10.8340   -3.8320   35.5700 C.2   265  THR265      0.2642
     41  O         -9.8190   -4.0430   34.8940 O.2   265  THR265     -0.2714
     42  CB        -9.8360   -2.6440   37.6220 C.3   265  THR265      0.1808
     43  OG1       -9.7440   -2.7910   39.0420 O.3   265  THR265     -0.2208
     44  CG2      -10.3170   -1.2220   37.2400 C.3   265  THR265      0.0379
     45  N        -12.0400   -3.7080   35.0290 N.am  266  VAL266     -0.1963
     46  CA       -12.2890   -3.8830   33.5910 C.3   266  VAL266      0.1727
     47  C        -13.2190   -2.8080   32.9920 C.2   266  VAL266      0.2616
     48  O        -13.9370   -2.1180   33.7070 O.2   266  VAL266     -0.2715
     49  CB       -12.9380   -5.2630   33.3020 C.3   266  VAL266      0.0290
     50  CG1      -11.9320   -6.3730   33.3980 C.3   266  VAL266      0.0023
     51  CG2      -14.1130   -5.5060   34.2580 C.3   266  VAL266      0.0023
     52  N        -13.2300   -2.6890   31.6810 N.am  267  ARG267     -0.1977
     53  CA       -14.2340   -1.8950   31.0300 C.3   267  ARG267      0.1597
     54  C        -15.4820   -2.7210   31.0390 C.2   267  ARG267      0.2287
     55  O        -15.3940   -3.9170   31.2110 O.2   267  ARG267     -0.2864
     56  CB       -13.8160   -1.6130   29.6060 C.3   267  ARG267      0.0334
     57  CG       -12.4540   -0.9580   29.5170 C.3   267  ARG267      0.0492
     58  CD       -12.3240   -0.1980   28.2580 C.3   267  ARG267      0.2205
     59  NE       -11.6260    1.0540   28.4830 N.pl3 267  ARG267     -0.0865
     60  CZ       -10.2990    1.1800   28.5270 C.cat 267  ARG267      0.5346
     61  NH1       -9.5110    0.1140   28.3670 N.pl3 267  ARG267      0.1354
     62  NH2       -9.7590    2.3780   28.7300 N.pl3 267  ARG267      0.1354
     63  N         -7.6630    4.2170   26.4010 N.3   297  ASN297     -0.1225
     64  CA        -6.6550    4.8420   27.2710 C.3   297  ASN297      0.1785
     65  C         -6.8150    4.3440   28.7450 C.2   297  ASN297      0.2597
     66  O         -7.1730    3.1990   28.9660 O.2   297  ASN297     -0.2718
     67  CB        -6.6940    6.3830   27.1280 C.3   297  ASN297      0.1169
     68  CG        -7.9740    6.9980   27.6960 C.2   297  ASN297      0.2627
     69  OD1       -8.6660    6.3630   28.4950 O.2   297  ASN297     -0.2716
     70  ND2       -8.2840    8.2320   27.3000 N.am  297  ASN297     -0.0877
     71  N         -6.5760    5.1910   29.7400 N.am  298  SER298     -0.1952
     72  CA        -6.6470    4.7700   31.1350 C.3   298  SER298      0.1924
     73  C         -7.3280    5.8000   32.0130 C.2   298  SER298      0.2314
     74  O         -7.1490    5.7780   33.2260 O.2   298  SER298     -0.2863
     75  CB        -5.2450    4.5080   31.6770 C.3   298  SER298      0.2116
     76  OG        -4.5230    5.7250   31.6960 O.3   298  SER298     -0.2180
     77  N        -10.0780    7.1150   34.2580 N.3   300  VAL300     -0.1245
     78  CA       -10.6870    6.3060   35.3260 C.3   300  VAL300      0.1561
     79  C        -12.2240    6.1020   35.1900 C.2   300  VAL300      0.2260
     80  O        -12.7910    5.1610   35.7990 O.2   300  VAL300     -0.2867
     81  CB       -10.2670    6.8680   36.7540 C.3   300  VAL300      0.0252
     82  CG1      -11.1930    8.0040   37.2460 C.3   300  VAL300      0.0019
     83  CG2      -10.1740    5.7590   37.7880 C.3   300  VAL300      0.0019
     84  N        -13.4990    2.6670   33.9340 N.3   303  LEU303     -0.1245
     85  CA       -12.9560    1.4660   34.5580 C.3   303  LEU303      0.1561
     86  C        -13.6610    1.1270   35.8680 C.2   303  LEU303      0.2260
     87  O        -13.9050    1.9820   36.7260 O.2   303  LEU303     -0.2867
     88  CB       -11.4370    1.5380   34.6950 C.3   303  LEU303      0.0270
     89  CG       -10.7640    1.8340   33.3500 C.3   303  LEU303      0.0019
     90  CD1       -9.4320    2.4480   33.5850 C.3   303  LEU303      0.0001
     91  CD2      -10.6540    0.6280   32.4120 C.3   303  LEU303      0.0001
     92  N        -11.2800   -5.5680   28.9260 N.3   390  ASN390     -0.1240
     93  CA       -10.5940   -4.3940   28.4080 C.3   390  ASN390      0.1653
     94  C        -10.4070   -4.3920   26.8960 C.2   390  ASN390      0.2266
     95  O        -10.3260   -3.3220   26.2960 O.2   390  ASN390     -0.2867
     96  CB        -9.2310   -4.2470   29.0910 C.3   390  ASN390      0.1155
     97  CG        -9.3290   -3.6360   30.4780 C.2   390  ASN390      0.2627
     98  OD1      -10.4310   -3.3700   30.9400 O.2   390  ASN390     -0.2716
     99  ND2       -8.1790   -3.4030   31.1500 N.am  390  ASN390     -0.0877
@<TRIPOS>BOND
     1    95    94    2
     2    63    64    1
     3    94    93    1
     4    67    64    1
     5    67    68    1
     6    64    65    1
     7    70    68   am
     8    68    69    2
     9    58    59    1
    10    58    57    1
    11    61    60    1
    12    93    92    1
    13    93    96    1
    14    59    60    2
    15    60    62    1
    16    65    66    2
    17    65    71   am
    18    28    29    1
    19    28    25    1
    20    96    97    1
    21    57    56    1
    22    56    53    1
    23    26    25    1
    24    26    27    2
    25    29    30    1
    26    71    72    1
    27    25    24    1
    28    10    11   ar
    29    10     8   ar
    30    97    98    2
    31    97    99   am
    32    11     9   ar
    33     8     6   ar
    34    53    54    1
    35    53    52    1
    36    54    55    2
    37    72    75    1
    38    72    73    1
    39    30    24    1
    40    24    20   am
    41    75    76    1
    42    52    47   am
    43     9     7   ar
    44    73    74    2
    45     6     7   ar
    46     6     5    1
    47    91    89    1
    48    20    21    2
    49    20    19    1
    50    47    46    1
    51    47    48    2
    52     5     2    1
    53    49    50    1
    54    49    46    1
    55    49    51    1
    56    89    90    1
    57    89    88    1
    58    46    45    1
    59    19    22    1
    60    19    18    1
    61    84    85    1
    62    22    23    1
    63     1     2    1
    64    77    78    1
    65     2     3    1
    66    85    88    1
    67    85    86    1
    68    18    14   am
    69    41    40    2
    70     4     3    2
    71    45    40   am
    72     3    12   am
    73    79    78    1
    74    79    80    2
    75    78    81    1
    76    40    39    1
    77    14    15    2
    78    14    13    1
    79    86    87    2
    80    12    13    1
    81    13    16    1
    82    81    82    1
    83    81    83    1
    84    39    42    1
    85    39    38    1
    86    44    42    1
    87    35    36    1
    88    35    32    1
    89    42    43    1
    90    17    16    1
    91    38    33   am
    92    36    37    1
    93    33    34    2
    94    33    32    1
    95    32    31    1
    96    37    31    1
