@<TRIPOS>MOLECULE
tmp/2vleG00.pdb
 173 166 0 0 0
SMALL
GASTEIGER

@<TRIPOS>ATOM
      1  N         60.2850  126.2580  149.9510 N.3   110  ILE110     -0.1245
      2  CA        61.0570  125.6540  148.8780 C.3   110  ILE110      0.1561
      3  C         60.1670  124.8320  147.9520 C.2   110  ILE110      0.2260
      4  O         60.2490  124.9610  146.7360 O.2   110  ILE110     -0.2867
      5  CB        62.2000  124.7710  149.4240 C.3   110  ILE110      0.0252
      6  CG1       63.1350  125.6000  150.3090 C.3   110  ILE110      0.0019
      7  CG2       62.9610  124.1550  148.2840 C.3   110  ILE110      0.0019
      8  CD1       63.6850  126.8500  149.6200 C.3   110  ILE110      0.0001
      9  N         60.4640  126.5060  144.5240 N.3   114  VAL114     -0.1245
     10  CA        61.4830  125.7600  143.7870 C.3   114  VAL114      0.1561
     11  C         60.9050  124.5290  143.0930 C.2   114  VAL114      0.2260
     12  O         60.7980  124.5050  141.8690 O.2   114  VAL114     -0.2867
     13  CB        62.6770  125.3710  144.7000 C.3   114  VAL114      0.0252
     14  CG1       63.6660  124.4850  143.9500 C.3   114  VAL114      0.0019
     15  CG2       63.3720  126.6310  145.2230 C.3   114  VAL114      0.0019
     16  N         59.9350  124.3340  139.1410 N.3   118  MET118     -0.1245
     17  CA        60.7680  123.4720  138.2950 C.3   118  MET118      0.1570
     18  C         59.9260  122.4120  137.5920 C.2   118  MET118      0.2261
     19  O         60.2000  122.0570  136.4360 O.2   118  MET118     -0.2867
     20  CB        61.8950  122.8210  139.1000 C.3   118  MET118      0.0387
     21  CG        62.8640  123.8210  139.6930 C.3   118  MET118      0.0595
     22  SD        64.4040  123.0700  140.2360 S.3   118  MET118     -0.1393
     23  CE        63.8380  122.1590  141.6650 C.3   118  MET118      0.0692
     24  N         63.3060  111.9500  147.2180 N.3   163  ASN163     -0.1225
     25  CA        63.9160  113.2300  147.5760 C.3   163  ASN163      0.1785
     26  C         63.3220  114.4500  146.8490 C.2   163  ASN163      0.2597
     27  O         63.3350  115.5530  147.3820 O.2   163  ASN163     -0.2718
     28  CB        65.4440  113.1870  147.4420 C.3   163  ASN163      0.1169
     29  CG        65.9080  112.8090  146.0450 C.2   163  ASN163      0.2627
     30  OD1       65.2040  112.1250  145.3000 O.2   163  ASN163     -0.2716
     31  ND2       67.1130  113.2470  145.6900 N.am  163  ASN163     -0.0877
     32  N         62.8120  114.2460  145.6360 N.am  164  PHE164     -0.1976
     33  CA        62.1280  115.2960  144.8770 C.3   164  PHE164      0.1639
     34  C         60.9140  114.6750  144.2060 C.2   164  PHE164      0.2290
     35  O         60.8760  114.5420  142.9870 O.2   164  PHE164     -0.2864
     36  CB        63.0420  115.8990  143.7980 C.3   164  PHE164      0.0560
     37  CG        64.1840  116.7190  144.3410 C.ar  164  PHE164     -0.0200
     38  CD1       65.3850  116.1130  144.7010 C.ar  164  PHE164     -0.0042
     39  CD2       64.0580  118.0910  144.4840 C.ar  164  PHE164     -0.0042
     40  CE1       66.4380  116.8570  145.2040 C.ar  164  PHE164     -0.0003
     41  CE2       65.1050  118.8560  144.9850 C.ar  164  PHE164     -0.0003
     42  CZ        66.3030  118.2370  145.3470 C.ar  164  PHE164     -0.0000
     43  N         59.1060  116.6820  141.2750 N.3   167  LEU167     -0.1231
     44  CA        60.0600  117.0140  140.2270 C.3   167  LEU167      0.1693
     45  C         60.4970  115.7720  139.4550 C.2   167  LEU167      0.2591
     46  O         60.5690  115.8060  138.2330 O.2   167  LEU167     -0.2718
     47  CB        61.2820  117.7320  140.8020 C.3   167  LEU167      0.0284
     48  CG        62.2350  118.2960  139.7470 C.3   167  LEU167      0.0019
     49  CD1       61.4610  119.1410  138.7490 C.3   167  LEU167      0.0001
     50  CD2       63.3680  119.1060  140.3770 C.3   167  LEU167      0.0001
     51  N         60.7940  114.6830  140.1650 N.am  168  MET168     -0.1979
     52  CA        61.2370  113.4460  139.5130 C.3   168  MET168      0.1605
     53  C         60.1440  112.8960  138.6040 C.2   168  MET168      0.2287
     54  O         60.4170  112.4070  137.5100 O.2   168  MET168     -0.2864
     55  CB        61.6280  112.3750  140.5370 C.3   168  MET168      0.0413
     56  CG        62.6540  112.7960  141.5730 C.3   168  MET168      0.0598
     57  SD        64.3420  112.3330  141.1660 S.3   168  MET168     -0.1393
     58  CE        64.4330  112.9770  139.4990 C.3   168  MET168      0.0692
     59  N         60.3390  115.1150  135.4730 N.3   171  TRP171     -0.1241
     60  CA        61.5020  114.7550  134.6520 C.3   171  TRP171      0.1605
     61  C         61.3040  113.4630  133.8700 C.2   171  TRP171      0.2264
     62  O         61.9150  113.2580  132.8150 O.2   171  TRP171     -0.2867
     63  CB        62.7440  114.6140  135.5150 C.3   171  TRP171      0.0550
     64  CG        63.3310  115.9090  135.9530 C.ar  171  TRP171      0.0003
     65  CD1       62.7070  117.1240  136.0060 C.ar  171  TRP171      0.0946
     66  CD2       64.6610  116.1180  136.4370 C.ar  171  TRP171      0.0152
     67  NE1       63.5740  118.0800  136.4800 N.ar  171  TRP171     -0.2442
     68  CE2       64.7770  117.4880  136.7610 C.ar  171  TRP171      0.0810
     69  CE3       65.7650  115.2820  136.6270 C.ar  171  TRP171      0.0012
     70  CZ2       65.9490  118.0370  137.2690 C.ar  171  TRP171      0.0191
     71  CZ3       66.9300  115.8310  137.1250 C.ar  171  TRP171      0.0001
     72  CH2       67.0120  117.1970  137.4430 C.ar  171  TRP171      0.0015
     73  N         65.7440  106.1530  138.8810 N.3   238  THR238     -0.1218
     74  CA        66.5500  107.0770  139.6550 C.3   238  THR238      0.1862
     75  C         66.5820  106.5660  141.0910 C.2   238  THR238      0.2287
     76  O         65.5470  106.2480  141.6620 O.2   238  THR238     -0.2866
     77  CB        65.9770  108.5070  139.6030 C.3   238  THR238      0.1770
     78  OG1       65.9000  108.9460  138.2380 O.3   238  THR238     -0.2211
     79  CG2       66.8570  109.4620  140.3970 C.3   238  THR238      0.0375
     80  N         69.7980  107.1150  136.6830 N.3   262  GLU262     -0.1245
     81  CA        70.2600  108.3140  137.3680 C.3   262  GLU262      0.1567
     82  C         70.5460  107.8960  138.7990 C.2   262  GLU262      0.2260
     83  O         69.6280  107.6260  139.5650 O.2   262  GLU262     -0.2867
     84  CB        69.1850  109.4080  137.3380 C.3   262  GLU262      0.0388
     85  CG        68.8830  109.9770  135.9410 C.3   262  GLU262      0.1160
     86  CD        69.8170  111.1160  135.5280 C.2   262  GLU262      0.3649
     87  OE1       70.4460  111.7370  136.4120 O.co2 262  GLU262     -0.2457
     88  OE2       69.9150  111.4010  134.3140 O.co2 262  GLU262     -0.2457
     89  N         74.9710  125.9470  150.3740 N.3   286  PHE286     -0.1241
     90  CA        73.8320  125.5410  149.5490 C.3   286  PHE286      0.1605
     91  C         74.0890  124.2120  148.8320 C.2   286  PHE286      0.2264
     92  O         73.2420  123.3180  148.8450 O.2   286  PHE286     -0.2867
     93  CB        73.5220  126.6640  148.5420 C.3   286  PHE286      0.0534
     94  CG        72.5920  126.2650  147.4290 C.ar  286  PHE286     -0.0203
     95  CD1       73.0410  126.2310  146.1200 C.ar  286  PHE286     -0.0042
     96  CD2       71.2670  125.9500  147.6860 C.ar  286  PHE286     -0.0042
     97  CE1       72.1890  125.8740  145.0960 C.ar  286  PHE286     -0.0003
     98  CE2       70.4190  125.5870  146.6640 C.ar  286  PHE286     -0.0003
     99  CZ        70.8750  125.5520  145.3710 C.ar  286  PHE286     -0.0000
    100  N         71.3650  121.7780  150.7710 N.3   290  PHE290     -0.1241
    101  CA        70.0550  121.9130  150.1380 C.3   290  PHE290      0.1605
    102  C         69.2220  120.6260  150.2380 C.2   290  PHE290      0.2264
    103  O         69.7540  119.5190  150.1100 O.2   290  PHE290     -0.2867
    104  CB        70.1830  122.3640  148.6820 C.3   290  PHE290      0.0534
    105  CG        68.8570  122.6400  148.0230 C.ar  290  PHE290     -0.0203
    106  CD1       68.3060  121.7360  147.1250 C.ar  290  PHE290     -0.0042
    107  CD2       68.1440  123.7910  148.3260 C.ar  290  PHE290     -0.0042
    108  CE1       67.0770  121.9860  146.5210 C.ar  290  PHE290     -0.0003
    109  CE2       66.9040  124.0470  147.7260 C.ar  290  PHE290     -0.0003
    110  CZ        66.3740  123.1370  146.8220 C.ar  290  PHE290     -0.0000
    111  N         70.3540  115.3300  147.9860 N.3   295  CYS295     -0.1221
    112  CA        70.5160  115.5160  146.5500 C.3   295  CYS295      0.1808
    113  C         71.6120  114.6010  146.0660 C.2   295  CYS295      0.2601
    114  O         72.6880  114.5390  146.6620 O.2   295  CYS295     -0.2717
    115  CB        70.9160  116.9530  146.2030 C.3   295  CYS295      0.0970
    116  SG        69.7900  118.2250  146.7790 S.3   295  CYS295     -0.0800
    117  N         71.3450  113.9110  144.9660 N.am  296  CYS296     -0.1956
    118  CA        72.3060  112.9770  144.3970 C.3   296  CYS296      0.1843
    119  C         73.5830  113.7200  144.0040 C.2   296  CYS296      0.2625
    120  O         74.6780  113.1500  144.0180 O.2   296  CYS296     -0.2714
    121  CB        71.6920  112.2500  143.1920 C.3   296  CYS296      0.0997
    122  SG        70.1000  111.4200  143.5300 S.3   296  CYS296     -0.0797
    123  N         73.4340  114.9990  143.6680 N.am  297  CYS297     -0.1968
    124  CA        74.5530  115.8000  143.1860 C.3   297  CYS297      0.1712
    125  C         75.0750  116.7710  144.2470 C.2   297  CYS297      0.2296
    126  O         75.7910  117.7140  143.9270 O.2   297  CYS297     -0.2864
    127  CB        74.1570  116.5770  141.9270 C.3   297  CYS297      0.0983
    128  SG        72.7600  117.7180  142.2080 S.3   297  CYS297     -0.0798
    129  N         78.6380  112.2920  138.9580 N.3   421  LEU421     -0.1245
    130  CA        77.3660  112.9340  138.6470 C.3   421  LEU421      0.1561
    131  C         77.5790  114.4150  138.3530 C.2   421  LEU421      0.2260
    132  O         77.1620  114.9210  137.3210 O.2   421  LEU421     -0.2867
    133  CB        76.3830  112.7630  139.8010 C.3   421  LEU421      0.0270
    134  CG        74.9500  113.2350  139.5250 C.3   421  LEU421      0.0019
    135  CD1       74.4490  112.6700  138.2000 C.3   421  LEU421      0.0001
    136  CD2       73.9970  112.8400  140.6570 C.3   421  LEU421      0.0001
    137  N         74.2350  123.6120  141.5270 N.3   451  ASP451     -0.1225
    138  CA        72.8350  123.1890  141.4850 C.3   451  ASP451      0.1805
    139  C         72.0270  124.0910  140.5750 C.2   451  ASP451      0.2598
    140  O         70.8920  124.4470  140.8940 O.2   451  ASP451     -0.2718
    141  CB        72.2060  123.2030  142.8830 C.3   451  ASP451      0.1424
    142  CG        72.4750  121.9340  143.6590 C.2   451  ASP451      0.3668
    143  OD1       72.8380  120.9270  143.0170 O.co2 451  ASP451     -0.2456
    144  OD2       72.3030  121.9420  144.9070 O.co2 451  ASP451     -0.2456
    145  N         72.6180  124.4760  139.4510 N.am  452  VAL452     -0.1966
    146  CA        71.8930  125.2490  138.4540 C.3   452  VAL452      0.1727
    147  C         71.2940  124.2990  137.4310 C.2   452  VAL452      0.2616
    148  O         72.0050  123.7000  136.6230 O.2   452  VAL452     -0.2715
    149  CB        72.8000  126.2770  137.7480 C.3   452  VAL452      0.0290
    150  CG1       71.9990  127.0640  136.7450 C.3   452  VAL452      0.0023
    151  CG2       73.4200  127.2020  138.7650 C.3   452  VAL452      0.0023
    152  N         69.9780  124.1500  137.4910 N.am  453  PHE453     -0.1974
    153  CA        69.2710  123.2660  136.5840 C.3   453  PHE453      0.1639
    154  C         68.3820  124.0520  135.6390 C.2   453  PHE453      0.2290
    155  O         67.7040  125.0040  136.0350 O.2   453  PHE453     -0.2864
    156  CB        68.4090  122.2870  137.3680 C.3   453  PHE453      0.0560
    157  CG        69.1890  121.3830  138.2760 C.ar  453  PHE453     -0.0200
    158  CD1       69.4940  121.7760  139.5730 C.ar  453  PHE453     -0.0042
    159  CD2       69.6050  120.1380  137.8400 C.ar  453  PHE453     -0.0042
    160  CE1       70.2090  120.9440  140.4140 C.ar  453  PHE453     -0.0003
    161  CE2       70.3130  119.2950  138.6780 C.ar  453  PHE453     -0.0003
    162  CZ        70.6170  119.7000  139.9650 C.ar  453  PHE453     -0.0000
    163  N         71.2770  116.4500  132.1480 N.3   459  PHE459     -0.1241
    164  CA        71.8090  116.1110  133.4570 C.3   459  PHE459      0.1605
    165  C         71.9150  114.5930  133.5780 C.2   459  PHE459      0.2264
    166  O         70.9890  113.8750  133.2020 O.2   459  PHE459     -0.2867
    167  CB        70.8940  116.6730  134.5490 C.3   459  PHE459      0.0534
    168  CG        71.4400  116.5100  135.9290 C.ar  459  PHE459     -0.0203
    169  CD1       72.2830  117.4700  136.4790 C.ar  459  PHE459     -0.0042
    170  CD2       71.1050  115.4010  136.6890 C.ar  459  PHE459     -0.0042
    171  CE1       72.7990  117.3200  137.7740 C.ar  459  PHE459     -0.0003
    172  CE2       71.6130  115.2420  137.9840 C.ar  459  PHE459     -0.0003
    173  CZ        72.4660  116.2010  138.5220 C.ar  459  PHE459     -0.0000
@<TRIPOS>BOND
     1   163   164    1
     2    62    61    2
     3   166   165    2
     4   164   165    1
     5   164   167    1
     6    61    60    1
     7    88    86   ar
     8   167   168    1
     9    60    59    1
    10    60    63    1
    11    63    64    1
    12    86    85    1
    13    86    87   ar
    14   154   155    2
    15   154   153    1
    16   168   169   ar
    17   168   170   ar
    18    85    84    1
    19    64    65   ar
    20    64    66   ar
    21    65    67   ar
    22    19    18    2
    23    66    69   ar
    24    66    68   ar
    25   169   171   ar
    26    67    68   ar
    27   153   156    1
    28   153   152    1
    29   148   147    2
    30    69    71   ar
    31    80    81    1
    32   170   172   ar
    33   150   149    1
    34    68    70   ar
    35    71    72   ar
    36    70    72   ar
    37   132   131    2
    38    84    81    1
    39   156   157    1
    40    81    82    1
    41   147   152   am
    42   147   146    1
    43    54    53    2
    44    18    17    1
    45   149   146    1
    46   149   151    1
    47   171   173   ar
    48   159   157   ar
    49   159   161   ar
    50   172   173   ar
    51   135   134    1
    52    46    45    2
    53    78    77    1
    54   157   158   ar
    55    17    20    1
    56    17    16    1
    57   131   130    1
    58   146   145    1
    59    53    52    1
    60   130   129    1
    61   130   133    1
    62   161   162   ar
    63    49    48    1
    64    82    83    2
    65    73    74    1
    66    20    21    1
    67   145   139   am
    68    45    51   am
    69    45    44    1
    70    58    57    1
    71    52    51    1
    72    52    55    1
    73   134   133    1
    74   134   136    1
    75   158   160   ar
    76    77    74    1
    77    77    79    1
    78    74    75    1
    79    21    22    1
    80    48    50    1
    81    48    47    1
    82   162   160   ar
    83    44    47    1
    84    44    43    1
    85    22    23    1
    86    55    56    1
    87   139   140    2
    88   139   138    1
    89    75    76    2
    90    57    56    1
    91   138   137    1
    92   138   141    1
    93    12    11    2
    94   127   128    1
    95   127   124    1
    96   141   142    1
    97    35    34    2
    98   143   142   ar
    99    11    10    1
   100   124   123    1
   101   124   125    1
   102   121   122    1
   103   121   118    1
   104   142   144   ar
   105   123   119   am
   106    10     9    1
   107    10    13    1
   108    36    37    1
   109    36    33    1
   110   126   125    2
   111    14    13    1
   112   119   120    2
   113   119   118    1
   114    34    33    1
   115    37    39   ar
   116    37    38   ar
   117   118   117    1
   118    39    41   ar
   119    13    15    1
   120    38    40   ar
   121    33    32    1
   122   117   113   am
   123    41    42   ar
   124    97    99   ar
   125    97    95   ar
   126    40    42   ar
   127    30    29    2
   128    99    98   ar
   129    32    26   am
   130    31    29   am
   131    29    28    1
   132   113   112    1
   133   113   114    2
   134    95    94   ar
   135   115   112    1
   136   115   116    1
   137   108   110   ar
   138   108   106   ar
   139   112   111    1
   140    98    96   ar
   141     4     3    2
   142   110   109   ar
   143    26    27    2
   144    26    25    1
   145   106   105   ar
   146    24    25    1
   147    94    96   ar
   148    94    93    1
   149    28    25    1
   150   109   107   ar
   151     3     2    1
   152   105   107   ar
   153   105   104    1
   154     7     5    1
   155    93    90    1
   156   104   101    1
   157    91    92    2
   158    91    90    1
   159     2     5    1
   160     2     1    1
   161     5     6    1
   162    90    89    1
   163     8     6    1
   164   103   102    2
   165   101   102    1
   166   101   100    1
