@<TRIPOS>MOLECULE
tmp/2vmfA00.pdb
 158 162 0 0 0
SMALL
GASTEIGER

@<TRIPOS>ATOM
      1  N         36.2570   51.6640    0.3430 N.3   151  ASN151     -0.1240
      2  CA        35.2240   52.3370    1.1460 C.3   151  ASN151      0.1653
      3  C         35.8120   53.0840    2.3190 C.2   151  ASN151      0.2266
      4  O         35.1040   53.8030    2.9960 O.2   151  ASN151     -0.2867
      5  CB        34.1540   51.3680    1.5800 C.3   151  ASN151      0.1155
      6  CG        33.2420   50.9870    0.4590 C.2   151  ASN151      0.2627
      7  OD1       32.3860   51.7740    0.0580 O.2   151  ASN151     -0.2716
      8  ND2       33.4220   49.7880   -0.0650 N.am  151  ASN151     -0.0877
      9  N         31.7350   54.6040    4.0740 N.3   171  TRP171     -0.1227
     10  CA        31.2040   53.5900    3.1570 C.3   171  TRP171      0.1737
     11  C         30.4600   54.2950    2.0100 C.2   171  TRP171      0.2595
     12  O         30.3920   55.5420    2.0110 O.2   171  TRP171     -0.2718
     13  CB        30.2920   52.5480    3.8640 C.3   171  TRP171      0.0564
     14  CG        30.5080   51.1260    3.2160 C.ar  171  TRP171      0.0003
     15  CD1       29.7440   50.5400    2.2630 C.ar  171  TRP171      0.0946
     16  CD2       31.5680   50.1900    3.5080 C.ar  171  TRP171      0.0152
     17  NE1       30.2540   49.2940    1.9170 N.ar  171  TRP171     -0.2442
     18  CE2       31.3810   49.0610    2.6630 C.ar  171  TRP171      0.0810
     19  CE3       32.6700   50.2050    4.3870 C.ar  171  TRP171      0.0012
     20  CZ2       32.2540   47.9570    2.6670 C.ar  171  TRP171      0.0191
     21  CZ3       33.5430   49.1070    4.3890 C.ar  171  TRP171      0.0001
     22  CH2       33.3220   47.9930    3.5230 C.ar  171  TRP171      0.0015
     23  N         29.9040   53.5320    1.0490 N.am  172  ASP172     -0.1960
     24  CA        29.2800   54.1500   -0.1370 C.3   172  ASP172      0.1840
     25  C         27.8230   54.5860    0.1610 C.2   172  ASP172      0.2622
     26  O         27.1220   55.0730   -0.7290 O.2   172  ASP172     -0.2715
     27  CB        29.4460   53.2840   -1.4120 C.3   172  ASP172      0.1450
     28  CG        28.7820   51.8740   -1.2600 C.2   172  ASP172      0.3671
     29  OD1       28.0560   51.6370   -0.2750 O.co2 172  ASP172     -0.2456
     30  OD2       28.9980   51.0050   -2.0910 O.co2 172  ASP172     -0.2456
     31  N         27.4250   54.5120    1.4340 N.am  173  TRP173     -0.1974
     32  CA        26.1810   55.0890    1.9300 C.3   173  TRP173      0.1640
     33  C         26.4420   55.7810    3.2510 C.2   173  TRP173      0.2290
     34  O         25.5110   56.1930    3.9380 O.2   173  TRP173     -0.2864
     35  CB        25.0730   53.9850    2.1040 C.3   173  TRP173      0.0576
     36  CG        25.6570   52.6660    2.6700 C.ar  173  TRP173      0.0006
     37  CD1       25.8880   51.5290    1.9760 C.ar  173  TRP173      0.0946
     38  CD2       26.1540   52.4220    4.0190 C.ar  173  TRP173      0.0152
     39  NE1       26.4240   50.5610    2.8010 N.ar  173  TRP173     -0.2442
     40  CE2       26.6200   51.0900    4.0500 C.ar  173  TRP173      0.0810
     41  CE3       26.2050   53.1950    5.2090 C.ar  173  TRP173      0.0012
     42  CZ2       27.1770   50.5000    5.2180 C.ar  173  TRP173      0.0191
     43  CZ3       26.7710   52.6060    6.4060 C.ar  173  TRP173      0.0001
     44  CH2       27.2200   51.2720    6.3850 C.ar  173  TRP173      0.0015
     45  N         25.4020   42.3970    7.8930 N.3   367  TRP367     -0.1241
     46  CA        26.4780   42.4520    6.9070 C.3   367  TRP367      0.1605
     47  C         27.8430   42.7970    7.5110 C.2   367  TRP367      0.2264
     48  O         27.9310   43.5660    8.4820 O.2   367  TRP367     -0.2867
     49  CB        26.0250   43.4620    5.8520 C.3   367  TRP367      0.0550
     50  CG        27.0520   44.0970    4.9710 C.ar  367  TRP367      0.0003
     51  CD1       27.4410   43.6590    3.7630 C.ar  367  TRP367      0.0946
     52  CD2       27.7080   45.3580    5.1830 C.ar  367  TRP367      0.0152
     53  NE1       28.3360   44.5430    3.1980 N.ar  367  TRP367     -0.2442
     54  CE2       28.5080   45.6050    4.0470 C.ar  367  TRP367      0.0810
     55  CE3       27.6850   46.3060    6.2180 C.ar  367  TRP367      0.0012
     56  CZ2       29.3250   46.7370    3.9270 C.ar  367  TRP367      0.0191
     57  CZ3       28.4900   47.4330    6.0970 C.ar  367  TRP367      0.0001
     58  CH2       29.2890   47.6450    4.9490 C.ar  367  TRP367      0.0015
     59  N         34.8450   43.3780    1.7150 N.3   396  CYS396     -0.1235
     60  CA        35.2380   44.0050    0.4250 C.3   396  CYS396      0.1677
     61  C         36.6940   44.1920    0.1520 C.2   396  CYS396      0.2270
     62  O         37.0580   44.6920   -0.9400 O.2   396  CYS396     -0.2867
     63  CB        34.5870   45.3700    0.2630 C.3   396  CYS396      0.0956
     64  SG        32.7950   45.3240    0.2040 S.3   396  CYS396     -0.0801
     65  N         32.1410   39.6690    3.6640 N.3   433  ASN433     -0.1225
     66  CA        31.4480   40.1680    2.5140 C.3   433  ASN433      0.1785
     67  C         32.3210   40.3790    1.2970 C.2   433  ASN433      0.2597
     68  O         33.2110   41.2570    1.3150 O.2   433  ASN433     -0.2718
     69  CB        30.7450   41.4950    2.8830 C.3   433  ASN433      0.1169
     70  CG        30.0210   42.0900    1.7310 C.2   433  ASN433      0.2627
     71  OD1       29.0290   41.5160    1.2850 O.2   433  ASN433     -0.2716
     72  ND2       30.5080   43.2420    1.2140 N.am  433  ASN433     -0.0877
     73  N         32.0760   39.5930    0.2410 N.am  434  GLU434     -0.1979
     74  CA        32.6750   39.8440   -1.1060 C.3   434  GLU434      0.1602
     75  C         34.2030   39.8700   -1.2170 C.2   434  GLU434      0.2287
     76  O         34.7250   40.3850   -2.2220 O.2   434  GLU434     -0.2864
     77  CB        32.1260   41.1550   -1.7550 C.3   434  GLU434      0.0415
     78  CG        30.6560   41.1280   -2.0600 C.3   434  GLU434      0.1163
     79  CD        30.0660   42.4880   -2.3690 C.2   434  GLU434      0.3649
     80  OE1       30.7560   43.5570   -2.2820 O.co2 434  GLU434     -0.2457
     81  OE2       28.8750   42.4680   -2.7040 O.co2 434  GLU434     -0.2457
     82  N         38.0920   41.9600   -8.9520 N.3   442  TRP442     -0.1241
     83  CA        38.0620   43.4140   -8.8940 C.3   442  TRP442      0.1605
     84  C         39.3420   44.0650   -9.3360 C.2   442  TRP442      0.2264
     85  O         39.5240   45.2650   -9.1130 O.2   442  TRP442     -0.2867
     86  CB        37.5950   43.9580   -7.5350 C.3   442  TRP442      0.0550
     87  CG        36.1670   43.6160   -7.2240 C.ar  442  TRP442      0.0003
     88  CD1       35.2630   42.9650   -8.0410 C.ar  442  TRP442      0.0946
     89  CD2       35.4610   43.9400   -6.0310 C.ar  442  TRP442      0.0152
     90  NE1       34.0500   42.8440   -7.4090 N.ar  442  TRP442     -0.2442
     91  CE2       34.1470   43.4150   -6.1660 C.ar  442  TRP442      0.0810
     92  CE3       35.8210   44.5980   -4.8340 C.ar  442  TRP442      0.0012
     93  CZ2       33.1900   43.5460   -5.1650 C.ar  442  TRP442      0.0191
     94  CZ3       34.8750   44.7000   -3.8260 C.ar  442  TRP442      0.0001
     95  CH2       33.5710   44.2030   -4.0030 C.ar  442  TRP442      0.0015
     96  N         24.5650   42.4370   -8.7210 N.3   505  TRP505     -0.1241
     97  CA        24.7080   43.8640   -8.9120 C.3   505  TRP505      0.1605
     98  C         24.7590   44.2150  -10.4030 C.2   505  TRP505      0.2264
     99  O         25.1910   45.2870  -10.7790 O.2   505  TRP505     -0.2867
    100  CB        25.8900   44.3950   -8.0920 C.3   505  TRP505      0.0550
    101  CG        25.5050   44.3750   -6.6650 C.ar  505  TRP505      0.0003
    102  CD1       25.7890   43.4100   -5.7410 C.ar  505  TRP505      0.0946
    103  CD2       24.6580   45.3220   -6.0250 C.ar  505  TRP505      0.0152
    104  NE1       25.1900   43.7270   -4.5160 N.ar  505  TRP505     -0.2442
    105  CE2       24.4920   44.9040   -4.6790 C.ar  505  TRP505      0.0810
    106  CE3       24.0390   46.5100   -6.4510 C.ar  505  TRP505      0.0012
    107  CZ2       23.7710   45.6700   -3.7490 C.ar  505  TRP505      0.0191
    108  CZ3       23.2970   47.2680   -5.5180 C.ar  505  TRP505      0.0001
    109  CH2       23.1630   46.8280   -4.2020 C.ar  505  TRP505      0.0015
    110  N         24.8370   48.4430  -10.7530 N.3   509  TYR509     -0.1241
    111  CA        26.1890   48.5430  -11.3360 C.3   509  TYR509      0.1605
    112  C         26.2850   48.0660  -12.7600 C.2   509  TYR509      0.2264
    113  O         26.9930   48.6790  -13.5080 O.2   509  TYR509     -0.2867
    114  CB        27.3460   47.9260  -10.5030 C.3   509  TYR509      0.0534
    115  CG        27.5360   48.6200   -9.1860 C.ar  509  TYR509     -0.0201
    116  CD1       27.8800   49.9630   -9.1450 C.ar  509  TYR509     -0.0009
    117  CD2       27.3180   47.9580   -7.9890 C.ar  509  TYR509     -0.0009
    118  CE1       27.9990   50.6200   -7.9680 C.ar  509  TYR509      0.0417
    119  CE2       27.4520   48.6070   -6.7840 C.ar  509  TYR509      0.0417
    120  CZ        27.7830   49.9310   -6.7740 C.ar  509  TYR509      0.1957
    121  OH        27.9060   50.6060   -5.6070 O.3   509  TYR509     -0.2866
    122  N         22.0870   39.4640   -1.9600 N.3   527  GLU527     -0.1245
    123  CA        22.0620   40.9180   -2.1520 C.3   527  GLU527      0.1567
    124  C         21.5320   41.2300   -3.5160 C.2   527  GLU527      0.2260
    125  O         21.9490   40.5970   -4.4910 O.2   527  GLU527     -0.2867
    126  CB        23.4660   41.5960   -2.1010 C.3   527  GLU527      0.0388
    127  CG        24.1480   41.6680   -0.7420 C.3   527  GLU527      0.1160
    128  CD        25.4290   42.4820   -0.7560 C.2   527  GLU527      0.3649
    129  OE1       25.7770   43.0440   -1.8240 O.co2 527  GLU527     -0.2457
    130  OE2       26.0890   42.5470    0.3070 O.co2 527  GLU527     -0.2457
    131  N         19.3950   44.5810   -0.6770 N.3   617  TRP617     -0.1241
    132  CA        20.3200   45.5720   -0.2120 C.3   617  TRP617      0.1605
    133  C         19.6340   46.9650   -0.4250 C.2   617  TRP617      0.2264
    134  O         19.4780   47.3840   -1.5500 O.2   617  TRP617     -0.2867
    135  CB        21.6560   45.4690   -0.9960 C.3   617  TRP617      0.0550
    136  CG        22.5460   46.4350   -0.3640 C.ar  617  TRP617      0.0003
    137  CD1       22.6230   47.7910   -0.6130 C.ar  617  TRP617      0.0946
    138  CD2       23.4270   46.1710    0.7290 C.ar  617  TRP617      0.0152
    139  NE1       23.5200   48.3790    0.2550 N.ar  617  TRP617     -0.2442
    140  CE2       24.0170   47.4090    1.1000 C.ar  617  TRP617      0.0810
    141  CE3       23.7840   44.9980    1.4340 C.ar  617  TRP617      0.0012
    142  CZ2       24.9340   47.5120    2.1620 C.ar  617  TRP617      0.0191
    143  CZ3       24.7220   45.0990    2.4810 C.ar  617  TRP617      0.0001
    144  CH2       25.2760   46.3400    2.8360 C.ar  617  TRP617      0.0015
    145  N         20.4900   52.7770   -0.8370 N.3   628  TRP628     -0.1241
    146  CA        19.7160   51.6390   -1.2780 C.3   628  TRP628      0.1605
    147  C         18.6470   51.2340   -0.2640 C.2   628  TRP628      0.2264
    148  O         17.9490   50.2870   -0.5060 O.2   628  TRP628     -0.2867
    149  CB        20.6480   50.4440   -1.5620 C.3   628  TRP628      0.0550
    150  CG        21.7050   50.7500   -2.5980 C.ar  628  TRP628      0.0003
    151  CD1       21.6880   50.3840   -3.9110 C.ar  628  TRP628      0.0946
    152  CD2       22.9360   51.4680   -2.3950 C.ar  628  TRP628      0.0152
    153  NE1       22.8070   50.8640   -4.5550 N.ar  628  TRP628     -0.2442
    154  CE2       23.5890   51.5360   -3.6410 C.ar  628  TRP628      0.0810
    155  CE3       23.5400   52.0920   -1.2740 C.ar  628  TRP628      0.0012
    156  CZ2       24.8440   52.1800   -3.8030 C.ar  628  TRP628      0.0191
    157  CZ3       24.7820   52.7670   -1.4500 C.ar  628  TRP628      0.0001
    158  CH2       25.4040   52.7990   -2.6890 C.ar  628  TRP628      0.0015
@<TRIPOS>BOND
     1   113   112    2
     2   112   111    1
     3   111   110    1
     4   111   114    1
     5    99    98    2
     6   114   115    1
     7    98    97    1
     8    84    85    2
     9    84    83    1
    10   115   116   ar
    11   115   117   ar
    12   116   118   ar
    13    82    83    1
    14    97    96    1
    15    97   100    1
    16    83    86    1
    17   100   101    1
    18    88    90   ar
    19    88    87   ar
    20   117   119   ar
    21   118   120   ar
    22    86    87    1
    23    90    91   ar
    24    87    89   ar
    25   119   120   ar
    26   120   121    1
    27   101   103   ar
    28   101   102   ar
    29   106   103   ar
    30   106   108   ar
    31    91    89   ar
    32    91    93   ar
    33    89    92   ar
    34   103   105   ar
    35   102   104   ar
    36   108   109   ar
    37    93    95   ar
    38    92    94   ar
    39   105   104   ar
    40   105   107   ar
    41   153   151   ar
    42   153   154   ar
    43   125   124    2
    44   109   107   ar
    45    95    94   ar
    46   151   150   ar
    47   156   154   ar
    48   156   158   ar
    49   154   152   ar
    50   124   123    1
    51    81    79   ar
    52   158   157   ar
    53   150   152   ar
    54   150   149    1
    55   152   155   ar
    56    79    80   ar
    57    79    78    1
    58    76    75    2
    59   123   126    1
    60   123   122    1
    61   126   127    1
    62    30    28   ar
    63    78    77    1
    64   129   128   ar
    65    77    74    1
    66   149   146    1
    67   134   133    2
    68   157   155   ar
    69    27    28    1
    70    27    24    1
    71   146   145    1
    72   146   147    1
    73    28    29   ar
    74    75    74    1
    75    74    73    1
    76   135   136    1
    77   135   132    1
    78    62    61    2
    79   128   127    1
    80   128   130   ar
    81    26    25    2
    82   131   132    1
    83   137   136   ar
    84   137   139   ar
    85   148   147    2
    86   133   132    1
    87   136   138   ar
    88    24    25    1
    89    24    23    1
    90     8     6   am
    91     7     6    2
    92    61    60    1
    93    25    31   am
    94    64    63    1
    95    73    67   am
    96   139   140   ar
    97    63    60    1
    98     1     2    1
    99    60    59    1
   100     6     5    1
   101   138   140   ar
   102   138   141   ar
   103    23    11   am
   104   140   142   ar
   105     2     5    1
   106     2     3    1
   107    72    70   am
   108    71    70    2
   109    67    68    2
   110    67    66    1
   111    31    32    1
   112   141   143   ar
   113    70    69    1
   114    17    15   ar
   115    17    18   ar
   116    32    35    1
   117    32    33    1
   118    37    36   ar
   119    37    39   ar
   120    11    12    2
   121    11    10    1
   122    35    36    1
   123   142   144   ar
   124    15    14   ar
   125     3     4    2
   126   143   144   ar
   127    66    69    1
   128    66    65    1
   129    18    20   ar
   130    18    16   ar
   131    20    22   ar
   132    36    38   ar
   133    39    40   ar
   134    10    13    1
   135    10     9    1
   136    53    51   ar
   137    53    54   ar
   138    14    16   ar
   139    14    13    1
   140    33    34    2
   141    16    19   ar
   142    22    21   ar
   143    51    50   ar
   144    56    54   ar
   145    56    58   ar
   146    38    40   ar
   147    38    41   ar
   148    54    52   ar
   149    40    42   ar
   150    19    21   ar
   151    58    57   ar
   152    50    52   ar
   153    50    49    1
   154    52    55   ar
   155    41    43   ar
   156    42    44   ar
   157    49    46    1
   158    57    55   ar
   159    44    43   ar
   160    46    47    1
   161    46    45    1
   162    47    48    2
