@<TRIPOS>MOLECULE
tmp/2vmlG01.pdb
 221 216 0 0 0
SMALL
GASTEIGER

@<TRIPOS>ATOM
      1  N         61.7470  -11.7460   82.1210 N.3    59  VAL59      -0.1231
      2  CA        60.6390  -12.5980   81.6900 C.3    59  VAL59       0.1692
      3  C         59.9810  -13.2640   82.8910 C.2    59  VAL59       0.2592
      4  O         58.7640  -13.2180   83.0440 O.2    59  VAL59      -0.2718
      5  CB        61.0820  -13.6630   80.6370 C.3    59  VAL59       0.0266
      6  CG1       59.9380  -14.6560   80.3350 C.3    59  VAL59       0.0020
      7  CG2       61.5620  -12.9790   79.3650 C.3    59  VAL59       0.0020
      8  N         60.8080  -13.8370   83.7600 N.am   60  TYR60      -0.1976
      9  CA        60.3390  -14.4640   85.0090 C.3    60  TYR60       0.1639
     10  C         59.7730  -13.4750   86.0420 C.2    60  TYR60       0.2290
     11  O         58.8880  -13.8340   86.8080 O.2    60  TYR60      -0.2864
     12  CB        61.4480  -15.2950   85.6600 C.3    60  TYR60       0.0560
     13  CG        62.0980  -16.3320   84.7370 C.ar   60  TYR60      -0.0198
     14  CD1       61.3380  -17.0620   83.8160 C.ar   60  TYR60      -0.0009
     15  CD2       63.4740  -16.6010   84.8130 C.ar   60  TYR60      -0.0009
     16  CE1       61.9270  -18.0050   82.9830 C.ar   60  TYR60       0.0417
     17  CE2       64.0780  -17.5530   83.9810 C.ar   60  TYR60       0.0417
     18  CZ        63.3010  -18.2490   83.0660 C.ar   60  TYR60       0.1957
     19  OH        63.8840  -19.1820   82.2240 O.3    60  TYR60      -0.2866
     20  N         55.6820  -18.8280   85.4310 N.3    66  LEU66      -0.1245
     21  CA        56.5200  -19.6430   84.5440 C.3    66  LEU66       0.1561
     22  C         57.5450  -20.4900   85.2820 C.2    66  LEU66       0.2260
     23  O         57.9330  -21.5490   84.8020 O.2    66  LEU66      -0.2867
     24  CB        57.2640  -18.7520   83.5350 C.3    66  LEU66       0.0270
     25  CG        56.4820  -18.1120   82.3750 C.3    66  LEU66       0.0019
     26  CD1       57.3920  -17.1340   81.6070 C.3    66  LEU66       0.0001
     27  CD2       55.9120  -19.1790   81.4490 C.3    66  LEU66       0.0001
     28  N         56.6900  -23.6270   81.7860 N.3    72  MET72      -0.1230
     29  CA        57.7410  -23.5940   80.7460 C.3    72  MET72       0.1702
     30  C         58.9950  -22.7670   81.0740 C.2    72  MET72       0.2592
     31  O         59.9300  -22.7050   80.2680 O.2    72  MET72      -0.2718
     32  CB        57.1140  -23.1980   79.4100 C.3    72  MET72       0.0401
     33  CG        56.2600  -24.3390   78.8650 C.3    72  MET72       0.0596
     34  SD        55.5810  -24.1600   77.2320 S.3    72  MET72      -0.1393
     35  CE        57.0430  -24.2240   76.1820 C.3    72  MET72       0.0692
     36  N         59.0250  -22.1550   82.2590 N.am   73  GLY73      -0.1957
     37  CA        60.2480  -21.5590   82.7960 C.3    73  GLY73       0.1869
     38  C         60.8460  -22.3300   83.9660 C.2    73  GLY73       0.2309
     39  O         61.6710  -21.7920   84.7080 O.2    73  GLY73      -0.2863
     40  N         64.6620  -25.8350   80.3010 N.3    78  ASN78      -0.1240
     41  CA        63.7740  -24.7630   79.8790 C.3    78  ASN78       0.1653
     42  C         64.4820  -23.4250   79.9600 C.2    78  ASN78       0.2266
     43  O         64.4150  -22.6240   79.0060 O.2    78  ASN78      -0.2867
     44  CB        62.4980  -24.7380   80.7300 C.3    78  ASN78       0.1155
     45  CG        61.5010  -25.8200   80.3220 C.2    78  ASN78       0.2627
     46  OD1       61.5130  -26.2900   79.1860 O.2    78  ASN78      -0.2716
     47  ND2       60.6380  -26.2280   81.2610 N.am   78  ASN78      -0.0877
     48  N         67.4320  -23.0370   77.3730 N.3    81  LYS81      -0.1231
     49  CA        66.8550  -22.7140   76.0420 C.3    81  LYS81       0.1693
     50  C         66.3730  -21.2760   75.9000 C.2    81  LYS81       0.2592
     51  O         66.4390  -20.6760   74.8100 O.2    81  LYS81      -0.2718
     52  CB        65.7260  -23.6950   75.6830 C.3    81  LYS81       0.0285
     53  CG        66.3080  -25.0090   75.2840 C.3    81  LYS81       0.0035
     54  CD        65.3060  -26.0680   74.8750 C.3    81  LYS81       0.0206
     55  CE        66.0920  -27.2280   74.2620 C.3    81  LYS81       0.1093
     56  NZ        65.2330  -28.3180   73.7680 N.3    81  LYS81      -0.1314
     57  N         65.8770  -20.7240   76.9990 N.am   82  CYS82      -0.1970
     58  CA        65.5260  -19.3170   77.0480 C.3    82  CYS82       0.1712
     59  C         66.7450  -18.3950   76.8090 C.2    82  CYS82       0.2296
     60  O         66.6910  -17.4700   76.0190 O.2    82  CYS82      -0.2864
     61  CB        64.9390  -18.9910   78.4200 C.3    82  CYS82       0.0983
     62  SG        64.0400  -17.4800   78.4140 S.3    82  CYS82      -0.0798
     63  N         69.5700  -19.2040   75.4940 N.3    84  ARG84      -0.1231
     64  CA        70.0220  -19.5050   74.1280 C.3    84  ARG84       0.1694
     65  C         69.2110  -18.7430   73.1060 C.2    84  ARG84       0.2592
     66  O         69.7670  -18.1000   72.2300 O.2    84  ARG84      -0.2718
     67  CB        69.8980  -21.0070   73.8520 C.3    84  ARG84       0.0321
     68  CG        70.2620  -21.4310   72.4100 C.3    84  ARG84       0.0489
     69  CD        69.6240  -22.7350   72.0440 C.3    84  ARG84       0.2205
     70  NE        68.1800  -22.5960   71.9400 N.pl3  84  ARG84      -0.0865
     71  CZ        67.3310  -23.5990   71.7040 C.cat  84  ARG84       0.5346
     72  NH1       67.7820  -24.8420   71.5680 N.pl3  84  ARG84       0.1354
     73  NH2       66.0210  -23.3600   71.6280 N.pl3  84  ARG84       0.1354
     74  N         67.8910  -18.8000   73.2310 N.am   85  ASP85      -0.1960
     75  CA        66.9870  -18.0590   72.3150 C.3    85  ASP85       0.1840
     76  C         67.2090  -16.5590   72.3230 C.2    85  ASP85       0.2621
     77  O         67.2780  -15.9360   71.2890 O.2    85  ASP85      -0.2715
     78  CB        65.5300  -18.3020   72.6710 C.3    85  ASP85       0.1450
     79  CG        65.0790  -19.6810   72.3430 C.2    85  ASP85       0.3671
     80  OD1       65.8730  -20.5020   71.7940 O.co2  85  ASP85      -0.2456
     81  OD2       63.8840  -19.9350   72.6050 O.co2  85  ASP85      -0.2456
     82  N         67.2840  -15.9860   73.5070 N.am   86  ILE86      -0.1977
     83  CA        67.5310  -14.5560   73.6760 C.3    86  ILE86       0.1596
     84  C         68.9170  -14.1800   73.1690 C.2    86  ILE86       0.2287
     85  O         69.0960  -13.1060   72.6140 O.2    86  ILE86      -0.2864
     86  CB        67.2970  -14.1180   75.1540 C.3    86  ILE86       0.0276
     87  CG1       65.8040  -14.2400   75.4780 C.3    86  ILE86       0.0022
     88  CG2       67.7360  -12.6580   75.4230 C.3    86  ILE86       0.0022
     89  CD1       65.5380  -14.0580   76.9640 C.3    86  ILE86       0.0001
     90  N         70.2730  -15.7670   70.6210 N.3    88  HIS88      -0.1226
     91  CA        70.0220  -15.7830   69.1690 C.3    88  HIS88       0.1752
     92  C         69.5600  -14.4390   68.6630 C.2    88  HIS88       0.2596
     93  O         70.0890  -13.9340   67.6860 O.2    88  HIS88      -0.2718
     94  CB        68.9300  -16.7930   68.7840 C.3    88  HIS88       0.0759
     95  CG        69.3680  -18.2300   68.8280 C.ar   88  HIS88       0.0818
     96  ND1       70.6790  -18.6130   68.6730 N.ar   88  HIS88      -0.2268
     97  CD2       68.6530  -19.3720   68.9640 C.ar   88  HIS88       0.1154
     98  CE1       70.7560  -19.9310   68.7190 C.ar   88  HIS88       0.1986
     99  NE2       69.5370  -20.4140   68.8850 N.ar   88  HIS88      -0.2212
    100  N         68.5320  -13.8890   69.3110 N.am   89  TYR89      -0.1976
    101  CA        67.9470  -12.6040   68.9290 C.3    89  TYR89       0.1639
    102  C         69.0050  -11.5310   68.9520 C.2    89  TYR89       0.2290
    103  O         69.1640  -10.8030   67.9800 O.2    89  TYR89      -0.2864
    104  CB        66.7830  -12.2090   69.8570 C.3    89  TYR89       0.0560
    105  CG        65.4400  -12.7390   69.4470 C.ar   89  TYR89      -0.0198
    106  CD1       64.5880  -11.9820   68.6320 C.ar   89  TYR89      -0.0009
    107  CD2       65.0080  -13.9970   69.8720 C.ar   89  TYR89      -0.0009
    108  CE1       63.3330  -12.4660   68.2380 C.ar   89  TYR89       0.0417
    109  CE2       63.7530  -14.5000   69.4850 C.ar   89  TYR89       0.0417
    110  CZ        62.9250  -13.7340   68.6610 C.ar   89  TYR89       0.1957
    111  OH        61.6920  -14.2250   68.2770 O.3    89  TYR89      -0.2866
    112  N         72.3000  -11.8630   68.8300 N.3    91  ARG91      -0.1231
    113  CA        73.2700  -12.1910   67.7830 C.3    91  ARG91       0.1694
    114  C         72.7820  -11.7240   66.4060 C.2    91  ARG91       0.2592
    115  O         73.5000  -11.0330   65.6680 O.2    91  ARG91      -0.2718
    116  CB        73.5560  -13.6890   67.8030 C.3    91  ARG91       0.0321
    117  CG        74.8160  -14.0990   67.0750 C.3    91  ARG91       0.0489
    118  CD        75.3500  -15.4600   67.5540 C.3    91  ARG91       0.2205
    119  NE        74.3110  -16.4880   67.5990 N.pl3  91  ARG91      -0.0865
    120  CZ        73.9370  -17.2390   66.5650 C.cat  91  ARG91       0.5346
    121  NH1       74.5080  -17.1040   65.3770 N.pl3  91  ARG91       0.1354
    122  NH2       72.9900  -18.1390   66.7230 N.pl3  91  ARG91       0.1354
    123  N         71.5330  -12.0310   66.0830 N.am   92  PHE92      -0.1976
    124  CA        70.9720  -11.6090   64.7850 C.3    92  PHE92       0.1639
    125  C         70.7000  -10.1170   64.6200 C.2    92  PHE92       0.2290
    126  O         70.6680   -9.6050   63.4770 O.2    92  PHE92      -0.2864
    127  CB        69.7900  -12.4900   64.3880 C.3    92  PHE92       0.0560
    128  CG        70.2380  -13.8700   63.9580 C.ar   92  PHE92      -0.0200
    129  CD1       70.7950  -14.0580   62.7050 C.ar   92  PHE92      -0.0042
    130  CD2       70.2090  -14.9360   64.8300 C.ar   92  PHE92      -0.0042
    131  CE1       71.2660  -15.2820   62.3310 C.ar   92  PHE92      -0.0003
    132  CE2       70.6730  -16.1650   64.4490 C.ar   92  PHE92      -0.0003
    133  CZ        71.2130  -16.3310   63.2120 C.ar   92  PHE92      -0.0000
    134  N         66.6930  -15.7980   59.4380 N.3   108  TYR108     -0.1227
    135  CA        67.0090  -16.7370   60.5200 C.3   108  TYR108      0.1736
    136  C         66.0090  -16.7430   61.6830 C.2   108  TYR108      0.2595
    137  O         65.9180  -17.7350   62.3900 O.2   108  TYR108     -0.2718
    138  CB        68.4140  -16.4650   61.0700 C.3   108  TYR108      0.0548
    139  CG        69.5550  -16.7980   60.1520 C.ar  108  TYR108     -0.0200
    140  CD1       70.3540  -17.9210   60.3790 C.ar  108  TYR108     -0.0009
    141  CD2       69.8740  -15.9720   59.0710 C.ar  108  TYR108     -0.0009
    142  CE1       71.4290  -18.2250   59.5470 C.ar  108  TYR108      0.0417
    143  CE2       70.9660  -16.2550   58.2370 C.ar  108  TYR108      0.0417
    144  CZ        71.7370  -17.3720   58.4850 C.ar  108  TYR108      0.1957
    145  OH        72.8090  -17.6350   57.6710 O.3   108  TYR108     -0.2866
    146  N         65.2910  -15.6450   61.8920 N.am  109  ILE109     -0.1980
    147  CA        64.2770  -15.5830   62.9480 C.3   109  ILE109      0.1595
    148  C         62.8510  -15.4040   62.4010 C.2   109  ILE109      0.2287
    149  O         61.9630  -16.1900   62.7190 O.2   109  ILE109     -0.2864
    150  CB        64.6260  -14.5040   64.0430 C.3   109  ILE109      0.0276
    151  CG1       65.9140  -14.8990   64.7610 C.3   109  ILE109      0.0022
    152  CG2       63.4910  -14.3640   65.0650 C.3   109  ILE109      0.0022
    153  CD1       66.3260  -13.9550   65.8660 C.3   109  ILE109      0.0001
    154  N         58.6340  -18.0100   62.0530 N.3   113  LEU113     -0.1245
    155  CA        58.5420  -17.6540   63.4690 C.3   113  LEU113      0.1561
    156  C         57.2710  -18.1260   64.1590 C.2   113  LEU113      0.2260
    157  O         57.3250  -18.7880   65.1660 O.2   113  LEU113     -0.2867
    158  CB        58.6730  -16.1410   63.6100 C.3   113  LEU113      0.0270
    159  CG        58.6450  -15.4870   64.9970 C.3   113  LEU113      0.0019
    160  CD1       59.7830  -16.0230   65.8700 C.3   113  LEU113      0.0001
    161  CD2       58.7110  -13.9990   64.8800 C.3   113  LEU113      0.0001
    162  N         56.7440  -22.1080   64.1510 N.3   116  VAL116     -0.1231
    163  CA        57.6200  -22.7080   65.1620 C.3   116  VAL116      0.1692
    164  C         57.1190  -22.4560   66.5830 C.2   116  VAL116      0.2592
    165  O         56.9740  -23.3860   67.3680 O.2   116  VAL116     -0.2718
    166  CB        59.1000  -22.1790   65.0060 C.3   116  VAL116      0.0266
    167  CG1       59.9510  -22.4720   66.2450 C.3   116  VAL116      0.0020
    168  CG2       59.7240  -22.7520   63.7740 C.3   116  VAL116      0.0020
    169  N         56.8640  -21.1910   66.9130 N.am  117  ASN117     -0.1974
    170  CA        56.3940  -20.8110   68.2550 C.3   117  ASN117      0.1688
    171  C         55.0490  -21.4530   68.6480 C.2   117  ASN117      0.2292
    172  O         54.8100  -21.7810   69.8130 O.2   117  ASN117     -0.2864
    173  CB        56.3170  -19.2780   68.3750 C.3   117  ASN117      0.1181
    174  CG        57.6980  -18.6160   68.4430 C.2   117  ASN117      0.2629
    175  OD1       58.7460  -19.2780   68.5340 O.2   117  ASN117     -0.2716
    176  ND2       57.7010  -17.3040   68.4150 N.am  117  ASN117     -0.0877
    177  N         55.8290  -25.3480   69.4040 N.3   120  PHE120     -0.1241
    178  CA        56.5360  -25.5410   70.6750 C.3   120  PHE120      0.1605
    179  C         55.9550  -24.7370   71.8410 C.2   120  PHE120      0.2264
    180  O         56.5530  -24.7240   72.9140 O.2   120  PHE120     -0.2867
    181  CB        58.0180  -25.2520   70.4800 C.3   120  PHE120      0.0534
    182  CG        58.6970  -26.2370   69.5690 C.ar  120  PHE120     -0.0203
    183  CD1       59.1200  -27.4590   70.0490 C.ar  120  PHE120     -0.0042
    184  CD2       58.8820  -25.9550   68.2270 C.ar  120  PHE120     -0.0042
    185  CE1       59.7470  -28.3850   69.1970 C.ar  120  PHE120     -0.0003
    186  CE2       59.5010  -26.8480   67.3900 C.ar  120  PHE120     -0.0003
    187  CZ        59.9310  -28.0660   67.8600 C.ar  120  PHE120     -0.0000
    188  N         55.5370  -21.4800   72.4580 N.3   122  LEU122     -0.1245
    189  CA        56.3640  -20.3910   72.9020 C.3   122  LEU122      0.1561
    190  C         55.5600  -19.1260   72.7370 C.2   122  LEU122      0.2260
    191  O         55.1300  -18.8160   71.6350 O.2   122  LEU122     -0.2867
    192  CB        57.6750  -20.3560   72.0910 C.3   122  LEU122      0.0270
    193  CG        58.4490  -21.6850   71.9940 C.3   122  LEU122      0.0019
    194  CD1       59.6230  -21.6250   70.9820 C.3   122  LEU122      0.0001
    195  CD2       58.9440  -22.1580   73.3850 C.3   122  LEU122      0.0001
    196  N         56.7570  -13.4100   75.8960 N.3   126  TRP126     -0.1227
    197  CA        58.0130  -13.6120   76.6230 C.3   126  TRP126      0.1737
    198  C         59.1700  -12.8830   75.9200 C.2   126  TRP126      0.2595
    199  O         59.9620  -12.2000   76.5460 O.2   126  TRP126     -0.2718
    200  CB        58.3890  -15.0980   76.7240 C.3   126  TRP126      0.0564
    201  CG        57.3600  -16.0310   77.2440 C.ar  126  TRP126      0.0003
    202  CD1       56.2790  -15.7410   78.0300 C.ar  126  TRP126      0.0946
    203  CD2       57.3200  -17.4310   77.0070 C.ar  126  TRP126      0.0152
    204  NE1       55.5730  -16.8780   78.3030 N.ar  126  TRP126     -0.2442
    205  CE2       56.1840  -17.9370   77.6800 C.ar  126  TRP126      0.0810
    206  CE3       58.1350  -18.3190   76.2770 C.ar  126  TRP126      0.0012
    207  CZ2       55.8360  -19.3020   77.6480 C.ar  126  TRP126      0.0191
    208  CZ3       57.7880  -19.6760   76.2500 C.ar  126  TRP126      0.0001
    209  CH2       56.6520  -20.1520   76.9300 C.ar  126  TRP126      0.0015
    210  N         59.2500  -13.0590   74.6100 N.am  127  TYR127     -0.1976
    211  CA        60.3300  -12.5090   73.7990 C.3   127  TYR127      0.1639
    212  C         60.1980  -11.0000   73.6380 C.2   127  TYR127      0.2290
    213  O         61.1920  -10.2810   73.6620 O.2   127  TYR127     -0.2864
    214  CB        60.3880  -13.2330   72.4370 C.3   127  TYR127      0.0560
    215  CG        60.6920  -14.7290   72.5670 C.ar  127  TYR127     -0.0198
    216  CD1       62.0090  -15.1780   72.7350 C.ar  127  TYR127     -0.0009
    217  CD2       59.6580  -15.6960   72.5760 C.ar  127  TYR127     -0.0009
    218  CE1       62.2880  -16.5330   72.8860 C.ar  127  TYR127      0.0417
    219  CE2       59.9460  -17.0610   72.7080 C.ar  127  TYR127      0.0417
    220  CZ        61.2570  -17.4680   72.8590 C.ar  127  TYR127      0.1957
    221  OH        61.5600  -18.8030   72.9700 O.3   127  TYR127     -0.2866
@<TRIPOS>BOND
     1   145   144    1
     2   143   144   ar
     3   143   141   ar
     4   144   142   ar
     5   141   139   ar
     6   134   135    1
     7   142   140   ar
     8   139   140   ar
     9   139   138    1
    10   135   138    1
    11   135   136    1
    12   136   146   am
    13   136   137    2
    14   146   147    1
    15   154   155    1
    16   131   129   ar
    17   131   133   ar
    18   148   149    2
    19   148   147    1
    20   129   128   ar
    21   147   150    1
    22   133   132   ar
    23   155   158    1
    24   155   156    1
    25   126   125    2
    26   158   159    1
    27   168   166    1
    28   128   127    1
    29   128   130   ar
    30   150   151    1
    31   150   152    1
    32   162   163    1
    33   156   157    2
    34   127   124    1
    35   132   130   ar
    36   125   124    1
    37   151   153    1
    38   124   123    1
    39   161   159    1
    40   159   160    1
    41   166   163    1
    42   166   167    1
    43   163   164    1
    44   121   120    1
    45   115   114    2
    46   123   114   am
    47   114   113    1
    48   120   122    1
    49   120   119    2
    50   164   169   am
    51   164   165    2
    52   169   170    1
    53   117   118    1
    54   117   116    1
    55   186   187   ar
    56   186   184   ar
    57   118   119    1
    58    93    92    2
    59   113   116    1
    60   113   112    1
    61   187   185   ar
    62   103   102    2
    63   184   182   ar
    64   108   106   ar
    65   108   110   ar
    66   170   173    1
    67   170   171    1
    68   111   110    1
    69   173   174    1
    70   176   174   am
    71   174   175    2
    72   106   105   ar
    73   171   172    2
    74   110   109   ar
    75    92    91    1
    76    92   100   am
    77    96    98   ar
    78    96    95   ar
    79    98    99   ar
    80    94    95    1
    81    94    91    1
    82    95    97   ar
    83    99    97   ar
    84   101   102    1
    85   101   100    1
    86   101   104    1
    87    91    90    1
    88   185   183   ar
    89   177   178    1
    90   105   104    1
    91   105   107   ar
    92   109   107   ar
    93   182   183   ar
    94   182   181    1
    95   181   178    1
    96   178   179    1
    97   194   193    1
    98    77    76    2
    99    72    71    1
   100    73    71    1
   101   191   190    2
   102    71    70    2
   103    80    79   ar
   104   179   180    2
   105    70    69    1
   106   193   192    1
   107   193   195    1
   108    69    68    1
   109   192   189    1
   110    66    65    2
   111    75    76    1
   112    75    78    1
   113    75    74    1
   114    76    82   am
   115    79    81   ar
   116    79    78    1
   117    68    67    1
   118   214   215    1
   119   214   211    1
   120   188   189    1
   121   215   217   ar
   122   215   216   ar
   123   217   219   ar
   124    85    84    2
   125   219   220   ar
   126   216   218   ar
   127   190   189    1
   128   220   218   ar
   129   220   221    1
   130    65    74   am
   131    65    64    1
   132    84    83    1
   133    82    83    1
   134   212   213    2
   135   212   211    1
   136    83    86    1
   137    56    55    1
   138   211   210    1
   139    67    64    1
   140    64    63    1
   141    55    54    1
   142   210   198   am
   143    51    50    2
   144    54    53    1
   145    86    88    1
   146    86    87    1
   147    53    52    1
   148    87    89    1
   149    52    49    1
   150   196   197    1
   151    50    49    1
   152    50    57   am
   153   198   199    2
   154   198   197    1
   155    60    59    2
   156    49    48    1
   157    35    34    1
   158   208   206   ar
   159   208   209   ar
   160   206   203   ar
   161   197   200    1
   162   200   201    1
   163    59    58    1
   164   209   207   ar
   165    57    58    1
   166   203   201   ar
   167   203   205   ar
   168    58    61    1
   169    34    33    1
   170   201   202   ar
   171   207   205   ar
   172   205   204   ar
   173   202   204   ar
   174    62    61    1
   175    33    32    1
   176    43    42    2
   177    46    45    2
   178     7     5    1
   179    32    29    1
   180    41    42    1
   181    41    40    1
   182    41    44    1
   183    31    30    2
   184    45    44    1
   185    45    47   am
   186     6     5    1
   187     5     2    1
   188    29    30    1
   189    29    28    1
   190    30    36   am
   191    27    25    1
   192    26    25    1
   193     2     1    1
   194     2     3    1
   195    19    18    1
   196    36    37    1
   197    25    24    1
   198    37    38    1
   199     3     4    2
   200     3     8   am
   201    16    18   ar
   202    16    14   ar
   203    18    17   ar
   204    24    21    1
   205     8     9    1
   206    14    13   ar
   207    38    39    2
   208    17    15   ar
   209    21    22    1
   210    21    20    1
   211    13    15   ar
   212    13    12    1
   213    23    22    2
   214     9    12    1
   215     9    10    1
   216    10    11    2
