@<TRIPOS>MOLECULE
tmp/2vmyB01.pdb
 124 118 0 0 0
SMALL
GASTEIGER

@<TRIPOS>ATOM
      1  N         31.8050   27.6210    6.0920 N.3   117  LEU117     -0.1231
      2  CA        30.5450   27.9080    6.7620 C.3   117  LEU117      0.1693
      3  C         29.9640   29.2520    6.3240 C.2   117  LEU117      0.2592
      4  O         28.8360   29.3110    5.8340 O.2   117  LEU117     -0.2718
      5  CB        30.7520   27.8620    8.2830 C.3   117  LEU117      0.0284
      6  CG        29.6160   27.8090    9.3180 C.3   117  LEU117      0.0019
      7  CD1       28.9490   29.1720    9.5290 C.3   117  LEU117      0.0001
      8  CD2       28.5890   26.7390    8.9950 C.3   117  LEU117      0.0001
      9  N         30.7430   30.3190    6.4840 N.am  118  SER118     -0.1952
     10  CA        30.2700   31.6730    6.1910 C.3   118  SER118      0.1924
     11  C         30.0660   31.9260    4.6950 C.2   118  SER118      0.2314
     12  O         29.2350   32.7500    4.3100 O.2   118  SER118     -0.2863
     13  CB        31.2110   32.7210    6.7890 C.3   118  SER118      0.2116
     14  OG        32.4580   32.7240    6.1220 O.3   118  SER118     -0.2180
     15  N         28.8350   29.7520    2.7170 N.3   120  GLY120     -0.1210
     16  CA        27.5990   29.0520    2.3650 C.3   120  GLY120      0.1956
     17  C         27.5070   27.6080    2.8340 C.2   120  GLY120      0.2612
     18  O         26.4130   27.0490    2.8990 O.2   120  GLY120     -0.2717
     19  N         28.6490   27.0050    3.1640 N.am  121  GLY121     -0.1942
     20  CA        28.7070   25.5990    3.5730 C.3   121  GLY121      0.2014
     21  C         27.9990   25.3130    4.8820 C.2   121  GLY121      0.2639
     22  O         27.6990   26.2300    5.6470 O.2   121  GLY121     -0.2714
     23  N         27.7310   24.0360    5.1360 N.am  122  HIS122     -0.1959
     24  CA        27.0340   23.6140    6.3450 C.3   122  HIS122      0.1787
     25  C         28.0000   23.2060    7.4660 C.2   122  HIS122      0.2620
     26  O         29.1620   22.8970    7.2110 O.2   122  HIS122     -0.2715
     27  CB        26.0770   22.4660    6.0170 C.3   122  HIS122      0.0785
     28  CG        25.3020   21.9730    7.1970 C.ar  122  HIS122      0.0821
     29  ND1       25.6020   20.7940    7.8420 N.ar  122  HIS122     -0.2267
     30  CD2       24.2530   22.5100    7.8620 C.ar  122  HIS122      0.1154
     31  CE1       24.7660   20.6200    8.8500 C.ar  122  HIS122      0.1986
     32  NE2       23.9370   21.6480    8.8840 N.ar  122  HIS122     -0.2212
     33  N         27.5060   23.2110    8.7040 N.am  123  LEU123     -0.1977
     34  CA        28.2730   22.7750    9.8740 C.3   123  LEU123      0.1596
     35  C         28.9900   21.4420    9.6750 C.2   123  LEU123      0.2287
     36  O         30.1560   21.2980   10.0460 O.2   123  LEU123     -0.2864
     37  CB        27.3610   22.6780   11.0970 C.3   123  LEU123      0.0297
     38  CG        26.9850   23.9910   11.7830 C.3   123  LEU123      0.0022
     39  CD1       25.6020   23.8880   12.4200 C.3   123  LEU123      0.0001
     40  CD2       28.0450   24.4050   12.8080 C.3   123  LEU123      0.0001
     41  N         33.0900   22.4110   10.0100 N.3   127  SER127     -0.1217
     42  CA        33.2210   23.3550   11.1180 C.3   127  SER127      0.1889
     43  C         34.1380   22.7770   12.2060 C.2   127  SER127      0.2288
     44  O         34.0860   21.5760   12.4810 O.2   127  SER127     -0.2866
     45  CB        31.8460   23.6850   11.6940 C.3   127  SER127      0.2089
     46  OG        31.9530   24.5860   12.7780 O.3   127  SER127     -0.2183
     47  N         33.9460   23.3180   15.3100 N.3   129  VAL129     -0.1245
     48  CA        33.1350   23.0580   16.5030 C.3   129  VAL129      0.1561
     49  C         32.1060   21.9600   16.2160 C.2   129  VAL129      0.2260
     50  O         31.1300   21.7840   16.9530 O.2   129  VAL129     -0.2867
     51  CB        32.4420   24.3380   17.0430 C.3   129  VAL129      0.0252
     52  CG1       33.4600   25.2680   17.6910 C.3   129  VAL129      0.0019
     53  CG2       31.6640   25.0560   15.9410 C.3   129  VAL129      0.0019
     54  N         24.2450   25.4200    2.6560 N.3   172  SER172     -0.1202
     55  CA        23.1070   25.7910    3.4910 C.3   172  SER172      0.2020
     56  C         22.5970   27.1830    3.1490 C.2   172  SER172      0.2618
     57  O         21.4350   27.4980    3.4100 O.2   172  SER172     -0.2717
     58  CB        23.4920   25.7550    4.9690 C.3   172  SER172      0.2103
     59  OG        23.5240   24.4310    5.4610 O.3   172  SER172     -0.2182
     60  N         23.4740   28.0140    2.5850 N.am  173  ALA173     -0.1979
     61  CA        23.1270   29.3960    2.2400 C.3   173  ALA173      0.1597
     62  C         23.7860   29.8570    0.9390 C.2   173  ALA173      0.2287
     63  O         24.3660   30.9400    0.8670 O.2   173  ALA173     -0.2864
     64  CB        23.4720   30.3370    3.3900 C.3   173  ALA173      0.0319
     65  N         15.8750   33.6090    9.9120 N.3   339  ASN339     -0.1225
     66  CA        17.0060   33.3570   10.7920 C.3   339  ASN339      0.1785
     67  C         18.2100   34.2130   10.4260 C.2   339  ASN339      0.2597
     68  O         18.4700   34.4660    9.2430 O.2   339  ASN339     -0.2718
     69  CB        17.3700   31.8650   10.8450 C.3   339  ASN339      0.1169
     70  CG        17.8340   31.3090    9.5070 C.2   339  ASN339      0.2627
     71  OD1       17.0920   30.6040    8.8290 O.2   339  ASN339     -0.2716
     72  ND2       19.0720   31.6040    9.1350 N.am  339  ASN339     -0.0877
     73  N         18.9220   34.6720   11.4540 N.am  340  LYS340     -0.1966
     74  CA        20.2060   35.3390   11.2750 C.3   340  LYS340      0.1728
     75  C         21.1490   34.3890   10.5450 C.2   340  LYS340      0.2616
     76  O         21.1580   33.1830   10.8180 O.2   340  LYS340     -0.2715
     77  CB        20.8010   35.7620   12.6250 C.3   340  LYS340      0.0311
     78  CG        21.0400   34.6230   13.6160 C.3   340  LYS340      0.0038
     79  CD        21.8400   35.0850   14.8230 C.3   340  LYS340      0.0206
     80  CE        22.0280   33.9620   15.8290 C.3   340  LYS340      0.1093
     81  NZ        20.7620   33.6240   16.5340 N.3   340  LYS340     -0.1314
     82  N         21.9260   34.9200    9.6090 N.am  341  ASN341     -0.1958
     83  CA        22.7950   34.0690    8.8120 C.3   341  ASN341      0.1819
     84  C         24.1020   34.7370    8.4110 C.2   341  ASN341      0.2621
     85  O         24.1080   35.9010    8.0090 O.2   341  ASN341     -0.2715
     86  CB        22.0540   33.5840    7.5680 C.3   341  ASN341      0.1195
     87  CG        22.4690   32.1950    7.1520 C.2   341  ASN341      0.2630
     88  OD1       21.9000   31.2040    7.6060 O.2   341  ASN341     -0.2716
     89  ND2       23.4610   32.1130    6.2780 N.am  341  ASN341     -0.0877
     90  N         25.2020   33.9910    8.5250 N.am  342  THR342     -0.1951
     91  CA        26.5130   34.4840    8.1180 C.3   342  THR342      0.1897
     92  C         26.5380   34.6990    6.6140 C.2   342  THR342      0.2313
     93  O         25.9440   33.9290    5.8580 O.2   342  THR342     -0.2863
     94  CB        27.6680   33.5170    8.4900 C.3   342  THR342      0.1794
     95  OG1       27.4230   32.2270    7.9180 O.3   342  THR342     -0.2208
     96  CG2       27.8220   33.3820    9.9950 C.3   342  THR342      0.0378
     97  N         30.8070   36.8360   14.3480 N.3   349  SER349     -0.1203
     98  CA        30.7380   35.3960   14.6100 C.3   349  SER349      0.2005
     99  C         29.3540   34.8300   14.2320 C.2   349  SER349      0.2461
    100  O         28.3940   35.5960   14.0950 O.2   349  SER349     -0.2732
    101  CB        31.0860   35.0970   16.0770 C.3   349  SER349      0.2103
    102  OG        30.0810   35.5630   16.9580 O.3   349  SER349     -0.2182
    103  N         29.2490   33.4930   14.0510 N.am  350  PRO350     -0.2717
    104  CA        27.9890   32.8430   13.6390 C.3   350  PRO350      0.1535
    105  C         26.7770   33.1010   14.5420 C.2   350  PRO350      0.2599
    106  O         25.6460   32.8210   14.1410 O.2   350  PRO350     -0.2715
    107  CB        28.3400   31.3510   13.6550 C.3   350  PRO350      0.0310
    108  CG        29.8110   31.3060   13.4670 C.3   350  PRO350      0.0237
    109  CD        30.3370   32.5060   14.2000 C.3   350  PRO350      0.0939
    110  N         27.0150   33.6210   15.7440 N.am  351  GLY351     -0.1955
    111  CA        25.9400   33.9260   16.6870 C.3   351  GLY351      0.1869
    112  C         25.3930   35.3340   16.5430 C.2   351  GLY351      0.2309
    113  O         24.3600   35.6660   17.1230 O.2   351  GLY351     -0.2863
    114  N         18.8960   35.2060    6.0720 N.3   357  ARG357     -0.1245
    115  CA        18.5740   34.2650    5.0120 C.3   357  ARG357      0.1563
    116  C         17.0610   34.1070    4.8910 C.2   357  ARG357      0.2260
    117  O         16.3670   33.9340    5.8940 O.2   357  ARG357     -0.2867
    118  CB        19.2370   32.9180    5.2910 C.3   357  ARG357      0.0307
    119  CG        19.1640   31.9280    4.1400 C.3   357  ARG357      0.0489
    120  CD        19.6440   30.5550    4.5670 C.3   357  ARG357      0.2205
    121  NE        19.0600   30.1380    5.8390 N.pl3 357  ARG357     -0.0865
    122  CZ        19.0820   28.8960    6.3070 C.cat 357  ARG357      0.5346
    123  NH1       19.6490   27.9280    5.6040 N.pl3 357  ARG357      0.1354
    124  NH2       18.5280   28.6200    7.4790 N.pl3 357  ARG357      0.1354
@<TRIPOS>BOND
     1    63    62    2
     2    62    61    1
     3    61    60    1
     4    61    64    1
     5    16    15    1
     6    16    17    1
     7    60    56   am
     8    54    55    1
     9    17    18    2
    10    17    19   am
    11    56    57    2
    12    56    55    1
    13    19    20    1
    14    55    58    1
    15    20    21    1
    16   119   120    1
    17   119   118    1
    18    12    11    2
    19   120   121    1
    20    11    10    1
    21    21    23   am
    22    21    22    2
    23   116   115    1
    24   116   117    2
    25    58    59    1
    26   115   118    1
    27   115   114    1
    28    23    24    1
    29   123   122    1
    30     4     3    2
    31   121   122    2
    32    93    92    2
    33    27    24    1
    34    27    28    1
    35     1     2    1
    36    14    13    1
    37    10     9    1
    38    10    13    1
    39    89    87   am
    40   122   124    1
    41     3     9   am
    42     3     2    1
    43    24    25    1
    44    92    91    1
    45     2     5    1
    46    87    86    1
    47    87    88    2
    48    28    29   ar
    49    28    30   ar
    50    26    25    2
    51    25    33   am
    52    86    83    1
    53    29    31   ar
    54    30    32   ar
    55    95    94    1
    56    85    84    2
    57    91    94    1
    58    91    90    1
    59     5     6    1
    60    84    90   am
    61    84    83    1
    62    94    96    1
    63    33    34    1
    64    83    82    1
    65    71    70    2
    66    31    32   ar
    67     8     6    1
    68    72    70   am
    69    68    67    2
    70     6     7    1
    71    70    69    1
    72    82    75   am
    73    35    34    1
    74    35    36    2
    75    34    37    1
    76    65    66    1
    77    41    42    1
    78    67    66    1
    79    67    73   am
    80    75    76    2
    81    75    74    1
    82    66    69    1
    83    37    38    1
    84    42    45    1
    85    42    43    1
    86    74    73    1
    87    74    77    1
    88    45    46    1
    89    38    39    1
    90    38    40    1
    91    43    44    2
    92    77    78    1
    93   108   107    1
    94   108   109    1
    95    78    79    1
    96   104   107    1
    97   104   103    1
    98   104   105    1
    99   103   109    1
   100   103    99   am
   101   100    99    2
   102   106   105    2
   103    99    98    1
   104    97    98    1
   105   105   110   am
   106    98   101    1
   107    79    80    1
   108    47    48    1
   109   110   111    1
   110    80    81    1
   111    53    51    1
   112   101   102    1
   113    49    48    1
   114    49    50    2
   115    48    51    1
   116   112   111    1
   117   112   113    2
   118    51    52    1
