@<TRIPOS>MOLECULE
tmp/2vn0A02.pdb
 155 150 0 0 0
SMALL
GASTEIGER

@<TRIPOS>ATOM
      1  N         52.2030    4.9050  -18.1640 N.3    75  ILE75      -0.1245
      2  CA        51.6270    4.7460  -19.4890 C.3    75  ILE75       0.1561
      3  C         52.3630    5.5000  -20.5910 C.2    75  ILE75       0.2260
      4  O         52.4680    5.0120  -21.7080 O.2    75  ILE75      -0.2867
      5  CB        50.1590    5.1650  -19.4880 C.3    75  ILE75       0.0252
      6  CG1       49.4080    4.3780  -18.4110 C.3    75  ILE75       0.0019
      7  CG2       49.5560    4.9350  -20.8630 C.3    75  ILE75       0.0019
      8  CD1       47.9060    4.4270  -18.5400 C.3    75  ILE75       0.0001
      9  N         55.7420    3.6190  -21.1350 N.3    78  ARG78      -0.1231
     10  CA        55.6320    2.3480  -21.8390 C.3    78  ARG78       0.1694
     11  C         55.4550    2.5540  -23.3380 C.2    78  ARG78       0.2591
     12  O         55.9580    1.7660  -24.1390 O.2    78  ARG78      -0.2718
     13  CB        54.4730    1.5030  -21.2950 C.3    78  ARG78       0.0321
     14  CG        54.5120    0.0490  -21.7930 C.3    78  ARG78       0.0489
     15  CD        53.4950   -0.8280  -21.0660 C.3    78  ARG78       0.2205
     16  NE        53.4910   -0.5580  -19.6250 N.pl3  78  ARG78      -0.0865
     17  CZ        52.7000   -1.1610  -18.7400 C.cat  78  ARG78       0.5346
     18  NH1       51.8360   -2.0870  -19.1380 N.pl3  78  ARG78       0.1354
     19  NH2       52.7600   -0.8190  -17.4580 N.pl3  78  ARG78       0.1354
     20  N         54.7540    3.6180  -23.7190 N.am   79  ILE79      -0.1980
     21  CA        54.5150    3.9000  -25.1320 C.3    79  ILE79       0.1595
     22  C         55.6350    4.6670  -25.8470 C.2    79  ILE79       0.2287
     23  O         56.0700    4.2630  -26.9190 O.2    79  ILE79      -0.2864
     24  CB        53.2070    4.6970  -25.3330 C.3    79  ILE79       0.0276
     25  CG1       52.0240    3.9220  -24.7590 C.3    79  ILE79       0.0022
     26  CG2       52.9840    4.9610  -26.8190 C.3    79  ILE79       0.0022
     27  CD1       50.7050    4.6490  -24.9080 C.3    79  ILE79       0.0001
     28  N         40.5600    8.7220  -27.8430 N.3   179  ARG179     -0.1231
     29  CA        39.3330    8.5490  -27.0830 C.3   179  ARG179      0.1694
     30  C         39.5240    7.6250  -25.8760 C.2   179  ARG179      0.2592
     31  O         38.7920    7.7240  -24.8890 O.2   179  ARG179     -0.2718
     32  CB        38.2080    8.0170  -27.9730 C.3   179  ARG179      0.0321
     33  CG        37.7540    8.9850  -29.0540 C.3   179  ARG179      0.0489
     34  CD        36.3430    8.6370  -29.5170 C.3   179  ARG179      0.2205
     35  NE        36.2580    7.2690  -30.0230 N.pl3 179  ARG179     -0.0865
     36  CZ        36.7030    6.8900  -31.2160 C.cat 179  ARG179      0.5346
     37  NH1       37.2540    7.7870  -32.0290 N.pl3 179  ARG179      0.1354
     38  NH2       36.6060    5.6180  -31.5940 N.pl3 179  ARG179      0.1354
     39  N         40.5080    6.7370  -25.9470 N.am  180  ILE180     -0.1966
     40  CA        40.7760    5.8300  -24.8420 C.3   180  ILE180      0.1727
     41  C         41.6650    6.4990  -23.8000 C.2   180  ILE180      0.2616
     42  O         41.3300    6.5360  -22.6160 O.2   180  ILE180     -0.2715
     43  CB        41.4810    4.5480  -25.3310 C.3   180  ILE180      0.0290
     44  CG1       40.4680    3.6170  -26.0000 C.3   180  ILE180      0.0022
     45  CG2       42.1940    3.8680  -24.1750 C.3   180  ILE180      0.0023
     46  CD1       41.1130    2.5850  -26.9210 C.3   180  ILE180      0.0001
     47  N         42.8000    7.0240  -24.2450 N.am  181  LEU181     -0.1977
     48  CA        43.7420    7.6660  -23.3360 C.3   181  LEU181      0.1596
     49  C         43.2500    8.9760  -22.7220 C.2   181  LEU181      0.2287
     50  O         43.9080    9.5410  -21.8550 O.2   181  LEU181     -0.2864
     51  CB        45.0830    7.8940  -24.0450 C.3   181  LEU181      0.0297
     52  CG        45.7900    6.6090  -24.5180 C.3   181  LEU181      0.0022
     53  CD1       47.1380    6.9450  -25.1540 C.3   181  LEU181      0.0001
     54  CD2       45.9840    5.6520  -23.3320 C.3   181  LEU181      0.0001
     55  N         40.4890    9.1700  -21.1180 N.3   183  SER183     -0.1203
     56  CA        39.4770    8.7880  -20.1510 C.3   183  SER183      0.2005
     57  C         39.9690    9.0460  -18.7340 C.2   183  SER183      0.2461
     58  O         41.1630    8.9340  -18.4460 O.2   183  SER183     -0.2732
     59  CB        39.1130    7.3110  -20.3020 C.3   183  SER183      0.2103
     60  OG        38.0390    6.9660  -19.4330 O.3   183  SER183     -0.2182
     61  N         39.0540    9.4310  -17.8350 N.am  184  PRO184     -0.2717
     62  CA        39.4340    9.6880  -16.4440 C.3   184  PRO184      0.1535
     63  C         40.1960    8.4790  -15.8740 C.2   184  PRO184      0.2599
     64  O         41.0850    8.6330  -15.0260 O.2   184  PRO184     -0.2715
     65  CB        38.0940    9.9060  -15.7720 C.3   184  PRO184      0.0310
     66  CG        37.3210   10.6170  -16.8400 C.3   184  PRO184      0.0237
     67  CD        37.6650    9.8530  -18.0940 C.3   184  PRO184      0.0939
     68  N         39.8510    7.2830  -16.3650 N.am  185  TRP185     -0.1960
     69  CA        40.4920    6.0350  -15.9420 C.3   185  TRP185      0.1771
     70  C         42.0100    6.0070  -16.1150 C.2   185  TRP185      0.2619
     71  O         42.7090    5.3470  -15.3400 O.2   185  TRP185     -0.2715
     72  CB        39.9240    4.8440  -16.7100 C.3   185  TRP185      0.0590
     73  CG        38.6090    4.3510  -16.2250 C.ar  185  TRP185      0.0006
     74  CD1       37.3830    4.5440  -16.8110 C.ar  185  TRP185      0.0946
     75  CD2       38.3830    3.5460  -15.0740 C.ar  185  TRP185      0.0152
     76  NE1       36.4130    3.8980  -16.0920 N.ar  185  TRP185     -0.2442
     77  CE2       36.9980    3.2750  -15.0200 C.ar  185  TRP185      0.0810
     78  CE3       39.2170    3.0210  -14.0760 C.ar  185  TRP185      0.0012
     79  CZ2       36.4290    2.4980  -14.0060 C.ar  185  TRP185      0.0191
     80  CZ3       38.6530    2.2520  -13.0720 C.ar  185  TRP185      0.0001
     81  CH2       37.2690    1.9970  -13.0450 C.ar  185  TRP185      0.0015
     82  N         42.5310    6.6880  -17.1330 N.am  186  ILE186     -0.1977
     83  CA        43.9760    6.6720  -17.3340 C.3   186  ILE186      0.1596
     84  C         44.6640    7.4520  -16.2310 C.2   186  ILE186      0.2287
     85  O         45.7880    7.1380  -15.8450 O.2   186  ILE186     -0.2864
     86  CB        44.3950    7.2290  -18.7340 C.3   186  ILE186      0.0276
     87  CG1       43.7930    8.6220  -18.9800 C.3   186  ILE186      0.0022
     88  CG2       43.9410    6.2560  -19.8240 C.3   186  ILE186      0.0022
     89  CD1       44.5180    9.8030  -18.3110 C.3   186  ILE186      0.0001
     90  N         44.6650    4.9480  -13.4330 N.3   189  CYS189     -0.1235
     91  CA        45.6400    3.9100  -13.7510 C.3   189  CYS189      0.1677
     92  C         47.0870    4.3670  -13.7120 C.2   189  CYS189      0.2270
     93  O         47.9930    3.5680  -13.4780 O.2   189  CYS189     -0.2867
     94  CB        45.3600    3.3100  -15.1300 C.3   189  CYS189      0.0956
     95  SG        43.9440    2.2080  -15.1860 S.3   189  CYS189     -0.0801
     96  N         45.9860   -1.3060  -14.5810 N.3   196  ILE196     -0.1245
     97  CA        46.1040   -1.5440  -16.0140 C.3   196  ILE196      0.1561
     98  C         45.7490   -3.0100  -16.3130 C.2   196  ILE196      0.2260
     99  O         45.1360   -3.3110  -17.3380 O.2   196  ILE196     -0.2867
    100  CB        47.5300   -1.2150  -16.5310 C.3   196  ILE196      0.0252
    101  CG1       47.8350    0.2680  -16.3140 C.3   196  ILE196      0.0019
    102  CG2       47.6330   -1.4990  -18.0260 C.3   196  ILE196      0.0019
    103  CD1       49.2060    0.6990  -16.8270 C.3   196  ILE196      0.0001
    104  N         42.4330   -3.9930  -17.4450 N.3   199  PHE199     -0.1241
    105  CA        42.0470   -3.5550  -18.7900 C.3   199  PHE199      0.1605
    106  C         42.9470   -4.1300  -19.8790 C.2   199  PHE199      0.2264
    107  O         43.6280   -3.3960  -20.5900 O.2   199  PHE199     -0.2867
    108  CB        42.0630   -2.0230  -18.8740 C.3   199  PHE199      0.0534
    109  CG        41.1260   -1.3570  -17.9100 C.ar  199  PHE199     -0.0203
    110  CD1       39.7420   -1.4620  -18.0760 C.ar  199  PHE199     -0.0042
    111  CD2       41.6210   -0.6630  -16.8120 C.ar  199  PHE199     -0.0042
    112  CE1       38.8660   -0.8880  -17.1570 C.ar  199  PHE199     -0.0003
    113  CE2       40.7580   -0.0820  -15.8840 C.ar  199  PHE199     -0.0003
    114  CZ        39.3740   -0.1940  -16.0540 C.ar  199  PHE199     -0.0000
    115  N         41.7180   -3.1410  -23.7910 N.3   202  THR202     -0.1203
    116  CA        42.0530   -1.7540  -24.0330 C.3   202  THR202      0.1994
    117  C         43.5670   -1.6120  -24.1210 C.2   202  THR202      0.2617
    118  O         44.0840   -0.9410  -25.0110 O.2   202  THR202     -0.2717
    119  CB        41.4990   -0.8820  -22.8990 C.3   202  THR202      0.1784
    120  OG1       40.1080   -1.1770  -22.7380 O.3   202  THR202     -0.2211
    121  CG2       41.6520    0.5950  -23.2210 C.3   202  THR202      0.0376
    122  N         44.2770   -2.2590  -23.2050 N.am  203  HIS203     -0.1975
    123  CA        45.7340   -2.2060  -23.1940 C.3   203  HIS203      0.1656
    124  C         46.2780   -2.6550  -24.5500 C.2   203  HIS203      0.2291
    125  O         47.0080   -1.9170  -25.2120 O.2   203  HIS203     -0.2864
    126  CB        46.2760   -3.1060  -22.0860 C.3   203  HIS203      0.0771
    127  CG        47.7520   -2.9890  -21.8740 C.ar  203  HIS203      0.0820
    128  ND1       48.3850   -3.4990  -20.7600 N.ar  203  HIS203     -0.2267
    129  CD2       48.7210   -2.4090  -22.6220 C.ar  203  HIS203      0.1154
    130  CE1       49.6780   -3.2370  -20.8310 C.ar  203  HIS203      0.1986
    131  NE2       49.9090   -2.5770  -21.9500 N.ar  203  HIS203     -0.2212
    132  N         45.5910   -0.2810  -27.5330 N.3   206  VAL206     -0.1231
    133  CA        46.4960    0.8650  -27.6140 C.3   206  VAL206      0.1692
    134  C         47.8400    0.4900  -28.2300 C.2   206  VAL206      0.2591
    135  O         48.1930    0.9880  -29.2950 O.2   206  VAL206     -0.2718
    136  CB        46.7440    1.5020  -26.2150 C.3   206  VAL206      0.0266
    137  CG1       47.8810    2.5260  -26.2900 C.3   206  VAL206      0.0020
    138  CG2       45.4670    2.1720  -25.7140 C.3   206  VAL206      0.0020
    139  N         48.5840   -0.3810  -27.5520 N.am  207  LEU207     -0.1980
    140  CA        49.8910   -0.8330  -28.0290 C.3   207  LEU207      0.1596
    141  C         49.8280   -1.3380  -29.4690 C.2   207  LEU207      0.2287
    142  O         50.7820   -1.1790  -30.2380 O.2   207  LEU207     -0.2864
    143  CB        50.4190   -1.9360  -27.1190 C.3   207  LEU207      0.0297
    144  CG        50.7350   -1.4580  -25.7050 C.3   207  LEU207      0.0022
    145  CD1       51.0170   -2.6370  -24.8020 C.3   207  LEU207      0.0001
    146  CD2       51.9240   -0.5140  -25.7580 C.3   207  LEU207      0.0001
    147  N         35.7840   15.9460  -19.2330 N.3   447  LYS447     -0.1245
    148  CA        36.1670   14.6840  -18.6380 C.3   447  LYS447      0.1561
    149  C         37.5420   14.3320  -19.1890 C.2   447  LYS447      0.2260
    150  O         37.7670   14.3550  -20.4050 O.2   447  LYS447     -0.2867
    151  CB        35.1350   13.5950  -18.9680 C.3   447  LYS447      0.0271
    152  CG        34.1050   13.3920  -17.8720 C.3   447  LYS447      0.0035
    153  CD        32.7990   12.8100  -18.3890 C.3   447  LYS447      0.0206
    154  CE        32.9350   11.3890  -18.9180 C.3   447  LYS447      0.1093
    155  NZ        31.5720   10.7920  -19.1040 N.3   447  LYS447     -0.1314
@<TRIPOS>BOND
     1    37    36    1
     2    38    36    1
     3    36    35    2
     4   142   141    2
     5    35    34    1
     6    34    33    1
     7   141   140    1
     8   135   134    2
     9    33    32    1
    10   134   133    1
    11   134   139   am
    12   140   139    1
    13   140   143    1
    14    32    29    1
    15    28    29    1
    16   133   132    1
    17   133   136    1
    18   143   144    1
    19    29    30    1
    20    46    44    1
    21    23    22    2
    22    26    24    1
    23   137   136    1
    24   136   138    1
    25    44    43    1
    26    39    30   am
    27    39    40    1
    28    30    31    2
    29    22    21    1
    30   146   144    1
    31   144   145    1
    32    24    21    1
    33    24    25    1
    34    43    40    1
    35    43    45    1
    36   125   124    2
    37    53    52    1
    38    21    20    1
    39   118   117    2
    40    27    25    1
    41    40    41    1
    42   124   123    1
    43    52    51    1
    44    52    54    1
    45    47    41   am
    46    47    48    1
    47    12    11    2
    48   117   116    1
    49   117   122   am
    50    51    48    1
    51   116   115    1
    52   116   119    1
    53    41    42    2
    54    20    11   am
    55    11    10    1
    56    48    49    1
    57   121   119    1
    58   122   123    1
    59   123   126    1
    60   119   120    1
    61    49    50    2
    62   129   131   ar
    63   129   127   ar
    64   126   127    1
    65   131   130   ar
    66   127   128   ar
    67    10    13    1
    68    10     9    1
    69    14    13    1
    70    14    15    1
    71     4     3    2
    72    55    56    1
    73    15    16    1
    74     7     5    1
    75   130   128   ar
    76     3     2    1
    77   107   106    2
    78   150   149    2
    79    59    56    1
    80    59    60    1
    81    56    57    1
    82   106   105    1
    83    88    86    1
    84    16    17    2
    85     2     5    1
    86     2     1    1
    87     5     6    1
    88   147   148    1
    89   149   148    1
    90    18    17    1
    91   155   154    1
    92    87    86    1
    93    87    89    1
    94   151   148    1
    95   151   152    1
    96   154   153    1
    97   108   105    1
    98   108   109    1
    99   105   104    1
   100    17    19    1
   101    57    58    2
   102    57    61   am
   103    86    83    1
   104     8     6    1
   105   153   152    1
   106    67    61    1
   107    67    66    1
   108   110   109   ar
   109   110   112   ar
   110   102   100    1
   111   109   111   ar
   112    61    62    1
   113    99    98    2
   114    83    82    1
   115    83    84    1
   116   112   114   ar
   117    82    70   am
   118    66    65    1
   119   103   101    1
   120   111   113   ar
   121    74    73   ar
   122    74    76   ar
   123    72    73    1
   124    72    69    1
   125   100   101    1
   126   100    97    1
   127    62    63    1
   128    62    65    1
   129    68    69    1
   130    68    63   am
   131    98    97    1
   132    84    85    2
   133    73    75   ar
   134    70    69    1
   135    70    71    2
   136    76    77   ar
   137   114   113   ar
   138    97    96    1
   139    63    64    2
   140    95    94    1
   141    94    91    1
   142    75    77   ar
   143    75    78   ar
   144    77    79   ar
   145    78    80   ar
   146    79    81   ar
   147    91    92    1
   148    91    90    1
   149    92    93    2
   150    80    81   ar
