@<TRIPOS>MOLECULE
tmp/2vn0A01.pdb
 197 187 0 0 0
SMALL
GASTEIGER

@<TRIPOS>ATOM
      1  N         52.2030    4.9050  -18.1640 N.3    75  ILE75      -0.1231
      2  CA        51.6270    4.7460  -19.4890 C.3    75  ILE75       0.1692
      3  C         52.3630    5.5000  -20.5910 C.2    75  ILE75       0.2592
      4  O         52.4680    5.0120  -21.7080 O.2    75  ILE75      -0.2718
      5  CB        50.1590    5.1650  -19.4880 C.3    75  ILE75       0.0266
      6  CG1       49.4080    4.3780  -18.4110 C.3    75  ILE75       0.0019
      7  CG2       49.5560    4.9350  -20.8630 C.3    75  ILE75       0.0020
      8  CD1       47.9060    4.4270  -18.5400 C.3    75  ILE75       0.0001
      9  N         52.8660    6.6900  -20.2860 N.am   76  SER76      -0.1952
     10  CA        53.6020    7.4690  -21.2820 C.3    76  SER76       0.1924
     11  C         54.9240    6.7710  -21.5590 C.2    76  SER76       0.2314
     12  O         55.3150    6.5830  -22.7140 O.2    76  SER76      -0.2863
     13  CB        53.8790    8.9040  -20.7850 C.3    76  SER76       0.2116
     14  OG        52.7610    9.7620  -20.9730 O.3    76  SER76      -0.2180
     15  N         54.7540    3.6180  -23.7190 N.3    79  ILE79      -0.1231
     16  CA        54.5150    3.9000  -25.1320 C.3    79  ILE79       0.1692
     17  C         55.6350    4.6670  -25.8470 C.2    79  ILE79       0.2592
     18  O         56.0700    4.2630  -26.9190 O.2    79  ILE79      -0.2718
     19  CB        53.2070    4.6970  -25.3330 C.3    79  ILE79       0.0266
     20  CG1       52.0240    3.9220  -24.7590 C.3    79  ILE79       0.0019
     21  CG2       52.9840    4.9610  -26.8190 C.3    79  ILE79       0.0020
     22  CD1       50.7050    4.6490  -24.9080 C.3    79  ILE79       0.0001
     23  N         56.0950    5.7650  -25.2540 N.am   80  THR80      -0.1953
     24  CA        57.1320    6.5960  -25.8660 C.3    80  THR80       0.1897
     25  C         58.5500    6.1580  -25.5270 C.2    80  THR80       0.2313
     26  O         59.4820    6.3850  -26.2990 O.2    80  THR80      -0.2863
     27  CB        56.9930    8.0690  -25.4380 C.3    80  THR80       0.1794
     28  OG1       57.4160    8.2100  -24.0740 O.3    80  THR80      -0.2208
     29  CG2       55.5480    8.5420  -25.5780 C.3    80  THR80       0.0378
     30  N         57.6680   15.0260  -26.4880 N.3    86  ILE86      -0.1231
     31  CA        56.6460   15.1500  -25.4510 C.3    86  ILE86       0.1692
     32  C         57.0260   14.5140  -24.1140 C.2    86  ILE86       0.2592
     33  O         56.9290   15.1530  -23.0680 O.2    86  ILE86      -0.2718
     34  CB        55.3020   14.5190  -25.8910 C.3    86  ILE86       0.0266
     35  CG1       54.7260   15.2730  -27.0890 C.3    86  ILE86       0.0019
     36  CG2       54.3170   14.5310  -24.7250 C.3    86  ILE86       0.0020
     37  CD1       53.5490   14.5640  -27.7050 C.3    86  ILE86       0.0001
     38  N         57.4650   13.2610  -24.1550 N.am   87  SER87      -0.1952
     39  CA        57.8010   12.5470  -22.9350 C.3    87  SER87       0.1924
     40  C         59.2830   12.4100  -22.6080 C.2    87  SER87       0.2314
     41  O         59.6630   11.5240  -21.8370 O.2    87  SER87      -0.2863
     42  CB        57.1680   11.1590  -22.9830 C.3    87  SER87       0.2116
     43  OG        55.7550   11.2590  -23.0640 O.3    87  SER87      -0.2180
     44  N         44.6920    7.0780  -34.2940 N.3   174  PHE174     -0.1241
     45  CA        45.0640    8.1210  -33.3620 C.3   174  PHE174      0.1605
     46  C         43.7870    8.5580  -32.6570 C.2   174  PHE174      0.2264
     47  O         43.7620    8.7770  -31.4500 O.2   174  PHE174     -0.2867
     48  CB        45.7050    9.2920  -34.1120 C.3   174  PHE174      0.0534
     49  CG        47.1670    9.0960  -34.4130 C.ar  174  PHE174     -0.0203
     50  CD1       47.7190    9.5970  -35.5840 C.ar  174  PHE174     -0.0042
     51  CD2       47.9970    8.4220  -33.5170 C.ar  174  PHE174     -0.0042
     52  CE1       49.0740    9.4300  -35.8630 C.ar  174  PHE174     -0.0003
     53  CE2       49.3560    8.2510  -33.7860 C.ar  174  PHE174     -0.0003
     54  CZ        49.8940    8.7570  -34.9620 C.ar  174  PHE174     -0.0000
     55  N         43.1890    5.8440  -30.0300 N.3   177  ASN177     -0.1225
     56  CA        44.0720    5.9280  -28.8800 C.3   177  ASN177      0.1785
     57  C         43.7550    7.1940  -28.1060 C.2   177  ASN177      0.2597
     58  O         44.0020    7.2630  -26.9000 O.2   177  ASN177     -0.2718
     59  CB        45.5340    5.9530  -29.3210 C.3   177  ASN177      0.1169
     60  CG        46.1270    4.5630  -29.4480 C.2   177  ASN177      0.2627
     61  OD1       45.4190    3.5970  -29.7470 O.2   177  ASN177     -0.2716
     62  ND2       47.4380    4.4560  -29.2390 N.am  177  ASN177     -0.0877
     63  N         43.2090    8.1970  -28.7950 N.am  178  PHE178     -0.1976
     64  CA        42.8630    9.4470  -28.1340 C.3   178  PHE178      0.1639
     65  C         41.6120    9.2990  -27.2810 C.2   178  PHE178      0.2290
     66  O         41.5970    9.7040  -26.1240 O.2   178  PHE178     -0.2864
     67  CB        42.6590   10.5920  -29.1440 C.3   178  PHE178      0.0560
     68  CG        42.0870   11.8400  -28.5200 C.ar  178  PHE178     -0.0200
     69  CD1       40.7130   12.1020  -28.5810 C.ar  178  PHE178     -0.0042
     70  CD2       42.8990   12.6880  -27.7570 C.ar  178  PHE178     -0.0042
     71  CE1       40.1580   13.1850  -27.8820 C.ar  178  PHE178     -0.0003
     72  CE2       42.3580   13.7740  -27.0530 C.ar  178  PHE178     -0.0003
     73  CZ        40.9870   14.0210  -27.1130 C.ar  178  PHE178     -0.0000
     74  N         42.8000    7.0240  -24.2450 N.3   181  LEU181     -0.1231
     75  CA        43.7420    7.6660  -23.3360 C.3   181  LEU181      0.1693
     76  C         43.2500    8.9760  -22.7220 C.2   181  LEU181      0.2592
     77  O         43.9080    9.5410  -21.8550 O.2   181  LEU181     -0.2718
     78  CB        45.0830    7.8940  -24.0450 C.3   181  LEU181      0.0284
     79  CG        45.7900    6.6090  -24.5180 C.3   181  LEU181      0.0019
     80  CD1       47.1380    6.9450  -25.1540 C.3   181  LEU181      0.0001
     81  CD2       45.9840    5.6520  -23.3320 C.3   181  LEU181      0.0001
     82  N         42.0990    9.4710  -23.1580 N.am  182  ASN182     -0.1974
     83  CA        41.6070   10.7120  -22.5870 C.3   182  ASN182      0.1688
     84  C         40.5130   10.4060  -21.5940 C.2   182  ASN182      0.2292
     85  O         39.7060   11.2660  -21.2490 O.2   182  ASN182     -0.2864
     86  CB        41.0890   11.6610  -23.6790 C.3   182  ASN182      0.1181
     87  CG        40.7930   13.0670  -23.1470 C.2   182  ASN182      0.2629
     88  OD1       41.6230   13.6850  -22.4750 O.2   182  ASN182     -0.2716
     89  ND2       39.6100   13.5690  -23.4490 N.am  182  ASN182     -0.0877
     90  N         42.5310    6.6880  -17.1330 N.3   186  ILE186     -0.1245
     91  CA        43.9760    6.6720  -17.3340 C.3   186  ILE186      0.1561
     92  C         44.6640    7.4520  -16.2310 C.2   186  ILE186      0.2260
     93  O         45.7880    7.1380  -15.8450 O.2   186  ILE186     -0.2867
     94  CB        44.3950    7.2290  -18.7340 C.3   186  ILE186      0.0252
     95  CG1       43.7930    8.6220  -18.9800 C.3   186  ILE186      0.0019
     96  CG2       43.9410    6.2560  -19.8240 C.3   186  ILE186      0.0019
     97  CD1       44.5180    9.8030  -18.3110 C.3   186  ILE186      0.0001
     98  N         47.7800   -0.2380  -31.8260 N.3   209  ASN209     -0.1225
     99  CA        47.7380    0.9750  -32.6400 C.3   209  ASN209      0.1785
    100  C         49.0770    1.7110  -32.6460 C.2   209  ASN209      0.2597
    101  O         49.4690    2.2790  -33.6590 O.2   209  ASN209     -0.2718
    102  CB        46.6290    1.9200  -32.1530 C.3   209  ASN209      0.1169
    103  CG        45.2310    1.4500  -32.5620 C.2   209  ASN209      0.2627
    104  OD1       45.0820    0.6640  -33.5030 O.2   209  ASN209     -0.2716
    105  ND2       44.2020    1.9430  -31.8680 N.am  209  ASN209     -0.0877
    106  N         49.7810    1.7060  -31.5200 N.am  210  VAL210     -0.1980
    107  CA        51.0740    2.3730  -31.4570 C.3   210  VAL210      0.1595
    108  C         52.0590    1.6080  -32.3220 C.2   210  VAL210      0.2287
    109  O         52.9990    2.1710  -32.8710 O.2   210  VAL210     -0.2864
    110  CB        51.5860    2.4360  -30.0160 C.3   210  VAL210      0.0276
    111  CG1       53.0640    2.7900  -29.9830 C.3   210  VAL210      0.0022
    112  CG2       50.7900    3.4790  -29.2560 C.3   210  VAL210      0.0022
    113  N         53.7750    3.5090  -35.6330 N.3   214  ARG214     -0.1245
    114  CA        55.2350    3.5640  -35.6440 C.3   214  ARG214      0.1563
    115  C         55.8390    2.8360  -36.8480 C.2   214  ARG214      0.2260
    116  O         56.6550    3.3980  -37.5800 O.2   214  ARG214     -0.2867
    117  CB        55.8060    2.9390  -34.3660 C.3   214  ARG214      0.0307
    118  CG        55.4580    3.6560  -33.0710 C.3   214  ARG214      0.0489
    119  CD        56.0590    5.0400  -33.0350 C.3   214  ARG214      0.2205
    120  NE        56.0530    5.6150  -31.6930 N.pl3 214  ARG214     -0.0865
    121  CZ        54.9580    5.9270  -31.0080 C.cat 214  ARG214      0.5346
    122  NH1       53.7540    5.7230  -31.5340 N.pl3 214  ARG214      0.1354
    123  NH2       55.0740    6.4680  -29.7990 N.pl3 214  ARG214      0.1354
    124  N         55.7260   10.8000  -34.3350 N.3   265  ALA265     -0.1231
    125  CA        54.5490   10.2930  -33.6380 C.3   265  ALA265      0.1694
    126  C         54.0970   11.3600  -32.6490 C.2   265  ALA265      0.2592
    127  O         52.9120   11.6880  -32.5770 O.2   265  ALA265     -0.2718
    128  CB        54.8820    8.9980  -32.9160 C.3   265  ALA265      0.0304
    129  N         55.0410   11.9100  -31.8960 N.am  266  ASP266     -0.1974
    130  CA        54.6900   12.9570  -30.9550 C.3   266  ASP266      0.1709
    131  C         53.9900   14.0900  -31.7050 C.2   266  ASP266      0.2293
    132  O         52.9750   14.6170  -31.2360 O.2   266  ASP266     -0.2864
    133  CB        55.9300   13.5070  -30.2420 C.3   266  ASP266      0.1436
    134  CG        56.3370   12.6720  -29.0380 C.2   266  ASP266      0.3671
    135  OD1       57.3110   13.0640  -28.3430 O.co2 266  ASP266     -0.2456
    136  OD2       55.6850   11.6310  -28.7870 O.co2 266  ASP266     -0.2456
    137  N         52.1420   14.0020  -34.3910 N.3   268  PHE268     -0.1227
    138  CA        50.7570   13.6390  -34.6910 C.3   268  PHE268      0.1736
    139  C         49.8940   13.7500  -33.4380 C.2   268  PHE268      0.2595
    140  O         48.8150   14.3320  -33.4750 O.2   268  PHE268     -0.2718
    141  CB        50.6590   12.2090  -35.2170 C.3   268  PHE268      0.0547
    142  CG        50.8940   12.0860  -36.6920 C.ar  268  PHE268     -0.0202
    143  CD1       52.1150   11.6210  -37.1810 C.ar  268  PHE268     -0.0042
    144  CD2       49.8890   12.4320  -37.5990 C.ar  268  PHE268     -0.0042
    145  CE1       52.3250   11.5020  -38.5440 C.ar  268  PHE268     -0.0003
    146  CE2       50.0940   12.3160  -38.9640 C.ar  268  PHE268     -0.0003
    147  CZ        51.3070   11.8530  -39.4380 C.ar  268  PHE268     -0.0000
    148  N         50.3780   13.1770  -32.3390 N.am  269  VAL269     -0.1966
    149  CA        49.6800   13.2000  -31.0560 C.3   269  VAL269      0.1727
    150  C         49.4500   14.6250  -30.5790 C.2   269  VAL269      0.2616
    151  O         48.3280   15.0490  -30.3080 O.2   269  VAL269     -0.2715
    152  CB        50.5070   12.4600  -29.9590 C.3   269  VAL269      0.0290
    153  CG1       50.0280   12.8640  -28.5590 C.3   269  VAL269      0.0023
    154  CG2       50.3790   10.9470  -30.1400 C.3   269  VAL269      0.0023
    155  N         50.5350   15.3660  -30.4760 N.am  270  ALA270     -0.1977
    156  CA        50.4560   16.7180  -29.9930 C.3   270  ALA270      0.1597
    157  C         49.7050   17.7120  -30.8840 C.2   270  ALA270      0.2287
    158  O         49.2160   18.7320  -30.3880 O.2   270  ALA270     -0.2864
    159  CB        51.8540   17.2150  -29.7180 C.3   270  ALA270      0.0319
    160  N         47.1990   16.8190  -33.7030 N.3   272  THR272     -0.1203
    161  CA        45.9750   16.4130  -34.3860 C.3   272  THR272      0.1994
    162  C         44.6910   16.6810  -33.6140 C.2   272  THR272      0.2618
    163  O         43.9540   17.6220  -33.9110 O.2   272  THR272     -0.2717
    164  CB        46.0180   14.9260  -34.7440 C.3   272  THR272      0.1784
    165  OG1       47.1510   14.6820  -35.5830 O.3   272  THR272     -0.2211
    166  CG2       44.7500   14.5180  -35.4910 C.3   272  THR272      0.0376
    167  N         44.4160   15.8570  -32.6170 N.am  273  GLU273     -0.1965
    168  CA        43.1860   16.0300  -31.8590 C.3   273  GLU273      0.1733
    169  C         43.0270   17.3950  -31.1570 C.2   273  GLU273      0.2617
    170  O         41.9100   17.8960  -31.0240 O.2   273  GLU273     -0.2715
    171  CB        43.0290   14.8700  -30.8750 C.3   273  GLU273      0.0429
    172  CG        41.7800   14.0150  -31.1160 C.3   273  GLU273      0.1163
    173  CD        41.6270   13.5010  -32.5490 C.2   273  GLU273      0.3649
    174  OE1       41.1390   14.2650  -33.4100 O.co2 273  GLU273     -0.2457
    175  OE2       41.9850   12.3310  -32.8160 O.co2 273  GLU273     -0.2457
    176  N         44.1250   18.0010  -30.7200 N.am  274  THR274     -0.1951
    177  CA        44.0510   19.3210  -30.0800 C.3   274  THR274      0.1897
    178  C         43.4180   20.3100  -31.0710 C.2   274  THR274      0.2313
    179  O         42.3500   20.8700  -30.8370 O.2   274  THR274     -0.2863
    180  CB        45.4480   19.8620  -29.7500 C.3   274  THR274      0.1794
    181  OG1       46.3170   19.6200  -30.8700 O.3   274  THR274     -0.2208
    182  CG2       46.0110   19.2190  -28.5020 C.3   274  THR274      0.0378
    183  N         41.9030   14.6400  -19.3610 N.3   449  ILE449     -0.1231
    184  CA        42.8920   15.6690  -19.6310 C.3   449  ILE449      0.1692
    185  C         42.5530   16.7280  -20.7170 C.2   449  ILE449      0.2591
    186  O         42.9830   17.8810  -20.6090 O.2   449  ILE449     -0.2718
    187  CB        44.2500   14.9700  -19.9140 C.3   449  ILE449      0.0266
    188  CG1       45.3540   15.9920  -20.1380 C.3   449  ILE449      0.0019
    189  CG2       44.1180   14.0320  -21.0850 C.3   449  ILE449      0.0020
    190  CD1       46.7100   15.3490  -20.2570 C.3   449  ILE449      0.0001
    191  N         41.7800   16.3560  -21.7390 N.am  450  VAL450     -0.1980
    192  CA        41.4040   17.2980  -22.7980 C.3   450  VAL450      0.1595
    193  C         39.8980   17.5280  -22.8180 C.2   450  VAL450      0.2287
    194  O         39.1330   16.5860  -22.9820 O.2   450  VAL450     -0.2864
    195  CB        41.8170   16.7880  -24.2090 C.3   450  VAL450      0.0276
    196  CG1       41.3270   17.7440  -25.2810 C.3   450  VAL450      0.0022
    197  CG2       43.3180   16.6530  -24.3000 C.3   450  VAL450      0.0022
@<TRIPOS>BOND
     1   147   146   ar
     2   147   145   ar
     3   146   144   ar
     4   145   143   ar
     5   144   142   ar
     6   116   115    2
     7   143   142   ar
     8   115   114    1
     9   142   141    1
    10    52    50   ar
    11    52    54   ar
    12   114   113    1
    13   114   117    1
    14    50    49   ar
    15   165   164    1
    16   166   164    1
    17   141   138    1
    18    54    53   ar
    19   164   161    1
    20   138   137    1
    21   138   139    1
    22    49    48    1
    23    49    51   ar
    24   161   160    1
    25   161   162    1
    26   117   118    1
    27   124   125    1
    28    44    45    1
    29    48    45    1
    30   163   162    2
    31    53    51   ar
    32   101   100    2
    33   125   128    1
    34   125   126    1
    35   162   167   am
    36   104   103    2
    37   140   139    2
    38   139   148   am
    39   174   173   ar
    40    45    46    1
    41   118   119    1
    42   119   120    1
    43   109   108    2
    44   175   173   ar
    45    46    47    2
    46   126   127    2
    47   126   129   am
    48   100    99    1
    49   100   106   am
    50    99   102    1
    51    99    98    1
    52   167   168    1
    53   103   102    1
    54   103   105   am
    55   173   172    1
    56   148   149    1
    57   108   107    1
    58   129   130    1
    59   168   169    1
    60   168   171    1
    61   131   132    2
    62   131   130    1
    63   120   121    2
    64   122   121    1
    65   106   107    1
    66   107   110    1
    67   169   170    2
    68   169   176   am
    69   172   171    1
    70   178   179    2
    71   178   177    1
    72   149   150    1
    73   149   152    1
    74   121   123    1
    75   130   133    1
    76   157   158    2
    77   157   156    1
    78   181   180    1
    79   176   177    1
    80   150   155   am
    81   150   151    2
    82   155   156    1
    83   133   134    1
    84   154   152    1
    85   177   180    1
    86    55    56    1
    87   110   111    1
    88   110   112    1
    89   156   159    1
    90   152   153    1
    91   180   182    1
    92    61    60    2
    93    60    59    1
    94    60    62   am
    95    59    56    1
    96    67    68    1
    97    67    64    1
    98   134   136   ar
    99   134   135   ar
   100    56    57    1
   101    63    64    1
   102    63    57   am
   103    69    68   ar
   104    69    71   ar
   105    68    70   ar
   106    64    65    1
   107    57    58    2
   108    71    73   ar
   109    70    72   ar
   110    37    35    1
   111    65    66    2
   112    73    72   ar
   113    35    34    1
   114    18    17    2
   115    21    19    1
   116    30    31    1
   117    26    25    2
   118    34    31    1
   119    34    36    1
   120    24    25    1
   121    24    27    1
   122    24    23    1
   123    17    23   am
   124    17    16    1
   125    29    27    1
   126    31    32    1
   127    27    28    1
   128    19    16    1
   129    19    20    1
   130   196   195    1
   131    80    79    1
   132    16    15    1
   133    22    20    1
   134    79    78    1
   135    79    81    1
   136   197   195    1
   137    74    75    1
   138   195   192    1
   139    38    32   am
   140    38    39    1
   141    32    33    2
   142    78    75    1
   143    86    87    1
   144    86    83    1
   145    89    87   am
   146    75    76    1
   147    82    76   am
   148    82    83    1
   149    87    88    2
   150    43    42    1
   151    42    39    1
   152   194   193    2
   153    39    40    1
   154   193   192    1
   155   192   191    1
   156    76    77    2
   157    12    11    2
   158    40    41    2
   159    83    84    1
   160   191   185   am
   161     4     3    2
   162    84    85    2
   163    11    10    1
   164    10    13    1
   165    10     9    1
   166   189   187    1
   167    14    13    1
   168     7     5    1
   169   185   186    2
   170   185   184    1
   171     3     9   am
   172     3     2    1
   173   190   188    1
   174   188   187    1
   175   187   184    1
   176    96    94    1
   177   184   183    1
   178     2     5    1
   179     2     1    1
   180     5     6    1
   181    95    94    1
   182    95    97    1
   183    94    91    1
   184     8     6    1
   185    91    90    1
   186    91    92    1
   187    92    93    2
