@<TRIPOS>MOLECULE
tmp/2vn1B01.pdb
 142 139 0 0 0
SMALL
GASTEIGER

@<TRIPOS>ATOM
      1  N          2.2450   30.2460   24.2090 N.3    39  TYR39      -0.1241
      2  CA         0.9640   29.5800   24.3230 C.3    39  TYR39       0.1605
      3  C         -0.2030   30.5190   24.0970 C.2    39  TYR39       0.2264
      4  O         -0.0520   31.7390   24.1410 O.2    39  TYR39      -0.2867
      5  CB         0.8400   28.9350   25.7130 C.3    39  TYR39       0.0534
      6  CG         0.6100   29.9330   26.8270 C.ar   39  TYR39      -0.0201
      7  CD1       -0.6840   30.3430   27.1750 C.ar   39  TYR39      -0.0009
      8  CD2        1.6890   30.5170   27.4940 C.ar   39  TYR39      -0.0009
      9  CE1       -0.8920   31.3220   28.1600 C.ar   39  TYR39       0.0417
     10  CE2        1.4940   31.4860   28.4730 C.ar   39  TYR39       0.0417
     11  CZ         0.2070   31.8900   28.8020 C.ar   39  TYR39       0.1957
     12  OH         0.0340   32.8660   29.7590 O.3    39  TYR39      -0.2866
     13  N         -8.5870   33.5610   26.3760 N.3    50  PHE50      -0.1227
     14  CA        -8.5150   34.4000   27.5700 C.3    50  PHE50       0.1736
     15  C         -7.1150   34.9310   27.8740 C.2    50  PHE50       0.2595
     16  O         -6.9640   35.9010   28.6210 O.2    50  PHE50      -0.2718
     17  CB        -9.0780   33.6590   28.7960 C.3    50  PHE50       0.0547
     18  CG        -8.3800   32.3650   29.1140 C.ar   50  PHE50      -0.0202
     19  CD1       -7.1730   32.3560   29.8120 C.ar   50  PHE50      -0.0042
     20  CD2       -8.9280   31.1490   28.7050 C.ar   50  PHE50      -0.0042
     21  CE1       -6.5200   31.1490   30.0970 C.ar   50  PHE50      -0.0003
     22  CE2       -8.2870   29.9420   28.9790 C.ar   50  PHE50      -0.0003
     23  CZ        -7.0760   29.9420   29.6790 C.ar   50  PHE50      -0.0000
     24  N         -6.0920   34.3240   27.2800 N.am   51  ASP51      -0.1974
     25  CA        -4.7220   34.7610   27.5280 C.3    51  ASP51       0.1709
     26  C         -3.7330   34.1220   26.5630 C.2    51  ASP51       0.2293
     27  O         -4.0020   33.0730   25.9690 O.2    51  ASP51      -0.2864
     28  CB        -4.3230   34.4360   28.9760 C.3    51  ASP51       0.1436
     29  CG        -2.9400   34.9710   29.3500 C.2    51  ASP51       0.3671
     30  OD1       -2.6350   36.1390   29.0270 O.co2  51  ASP51      -0.2456
     31  OD2       -2.1610   34.2270   29.9870 O.co2  51  ASP51      -0.2456
     32  N          1.9760   39.8290   25.3370 N.3    56  ARG56      -0.1245
     33  CA         3.1160   40.5680   25.8390 C.3    56  ARG56       0.1563
     34  C          4.3740   40.2780   25.0290 C.2    56  ARG56       0.2260
     35  O          5.3660   40.9980   25.1200 O.2    56  ARG56      -0.2867
     36  CB         3.3130   40.2100   27.3180 C.3    56  ARG56       0.0307
     37  CG         2.8130   38.8150   27.6520 C.3    56  ARG56       0.0489
     38  CD         2.9690   38.4450   29.1220 C.3    56  ARG56       0.2205
     39  NE         2.7100   37.0170   29.3060 N.pl3  56  ARG56      -0.0865
     40  CZ         1.5060   36.4570   29.2460 C.cat  56  ARG56       0.5346
     41  NH1        0.4280   37.2010   29.0230 N.pl3  56  ARG56       0.1354
     42  NH2        1.3840   35.1410   29.3690 N.pl3  56  ARG56       0.1354
     43  N          6.9090   32.1180   27.8650 N.3    60  PHE60      -0.1241
     44  CA         6.6640   31.6760   29.2260 C.3    60  PHE60       0.1605
     45  C          7.6510   30.5860   29.6400 C.2    60  PHE60       0.2264
     46  O          7.8870   29.6220   28.9090 O.2    60  PHE60      -0.2867
     47  CB         5.2240   31.1650   29.3360 C.3    60  PHE60       0.0534
     48  CG         4.8930   30.5700   30.6630 C.ar   60  PHE60      -0.0203
     49  CD1        5.0620   31.3080   31.8360 C.ar   60  PHE60      -0.0042
     50  CD2        4.4090   29.2680   30.7510 C.ar   60  PHE60      -0.0042
     51  CE1        4.7530   30.7520   33.0800 C.ar   60  PHE60      -0.0003
     52  CE2        4.0970   28.7040   31.9930 C.ar   60  PHE60      -0.0003
     53  CZ         4.2710   29.4500   33.1580 C.ar   60  PHE60      -0.0000
     54  N          5.0130   21.1160   40.0340 N.3    67  GLY67      -0.1210
     55  CA         3.7740   21.6410   40.5830 C.3    67  GLY67       0.1956
     56  C          3.6080   23.1270   40.3360 C.2    67  GLY67       0.2612
     57  O          2.7770   23.7760   40.9690 O.2    67  GLY67      -0.2717
     58  N          4.3950   23.6630   39.4060 N.am   68  GLU68      -0.1965
     59  CA         4.3500   25.0860   39.0650 C.3    68  GLU68       0.1733
     60  C          3.2040   25.4330   38.1260 C.2    68  GLU68       0.2616
     61  O          2.7870   26.5920   38.0400 O.2    68  GLU68      -0.2715
     62  CB         5.6570   25.5260   38.4080 C.3    68  GLU68       0.0429
     63  CG         6.6790   26.0880   39.3570 C.3    68  GLU68       0.1163
     64  CD         7.9350   26.5280   38.6390 C.2    68  GLU68       0.3649
     65  OE1        7.8210   27.2660   37.6360 O.co2  68  GLU68      -0.2457
     66  OE2        9.0360   26.1420   39.0810 O.co2  68  GLU68      -0.2457
     67  N          2.7130   24.4360   37.4030 N.am   69  VAL69      -0.1963
     68  CA         1.6140   24.6540   36.4700 C.3    69  VAL69       0.1727
     69  C          0.5340   23.6100   36.6870 C.2    69  VAL69       0.2616
     70  O          0.7650   22.5960   37.3440 O.2    69  VAL69      -0.2715
     71  CB         2.0770   24.5620   34.9880 C.3    69  VAL69       0.0290
     72  CG1        3.0820   25.6780   34.6680 C.3    69  VAL69       0.0023
     73  CG2        2.6940   23.1880   34.7270 C.3    69  VAL69       0.0023
     74  N         -0.6460   23.8670   36.1360 N.am   70  ILE70      -0.1977
     75  CA        -1.7440   22.9290   36.2560 C.3    70  ILE70       0.1596
     76  C         -1.2350   21.5850   35.7410 C.2    70  ILE70       0.2287
     77  O         -0.4010   21.5310   34.8370 O.2    70  ILE70      -0.2864
     78  CB        -2.9660   23.4130   35.4530 C.3    70  ILE70       0.0276
     79  CG1       -2.5540   23.7380   34.0180 C.3    70  ILE70       0.0022
     80  CG2       -3.5710   24.6450   36.1290 C.3    70  ILE70       0.0022
     81  CD1       -3.6540   24.3720   33.2080 C.3    70  ILE70       0.0001
     82  N         -0.7340   20.6510   32.0340 N.3    73  TRP73      -0.1241
     83  CA         0.4190   21.2190   31.3340 C.3    73  TRP73       0.1605
     84  C          1.6910   20.4070   31.5280 C.2    73  TRP73       0.2264
     85  O          2.4360   20.1910   30.5750 O.2    73  TRP73      -0.2867
     86  CB         0.6790   22.6540   31.7870 C.3    73  TRP73       0.0550
     87  CG         0.1900   23.6810   30.8270 C.ar   73  TRP73       0.0003
     88  CD1       -1.1010   23.9080   30.4580 C.ar   73  TRP73       0.0946
     89  CD2        0.9800   24.6720   30.1620 C.ar   73  TRP73       0.0152
     90  NE1       -1.1700   24.9870   29.6120 N.ar   73  TRP73      -0.2442
     91  CE2        0.0940   25.4770   29.4140 C.ar   73  TRP73       0.0810
     92  CE3        2.3510   24.9620   30.1290 C.ar   73  TRP73       0.0012
     93  CZ2        0.5290   26.5550   28.6450 C.ar   73  TRP73       0.0191
     94  CZ3        2.7870   26.0350   29.3640 C.ar   73  TRP73       0.0001
     95  CH2        1.8750   26.8200   28.6320 C.ar   73  TRP73       0.0015
     96  N         -6.9960   20.6780   35.4110 N.3    95  GLY95      -0.1210
     97  CA        -6.8910   22.1160   35.2640 C.3    95  GLY95       0.1956
     98  C         -7.0400   22.7940   36.6110 C.2    95  GLY95       0.2611
     99  O         -6.2740   22.5170   37.5340 O.2    95  GLY95      -0.2717
    100  N         -8.0340   23.6720   36.7260 N.am   96  TYR96      -0.1976
    101  CA        -8.2850   24.4000   37.9650 C.3    96  TYR96       0.1639
    102  C         -9.4380   23.8320   38.7920 C.2    96  TYR96       0.2290
    103  O         -9.9620   24.5090   39.6770 O.2    96  TYR96      -0.2864
    104  CB        -8.5370   25.8730   37.6430 C.3    96  TYR96       0.0560
    105  CG        -7.2960   26.5570   37.1240 C.ar   96  TYR96      -0.0198
    106  CD1       -6.2610   26.9100   37.9910 C.ar   96  TYR96      -0.0009
    107  CD2       -7.1230   26.7940   35.7600 C.ar   96  TYR96      -0.0009
    108  CE1       -5.0890   27.4740   37.5190 C.ar   96  TYR96       0.0417
    109  CE2       -5.9460   27.3610   35.2750 C.ar   96  TYR96       0.0417
    110  CZ        -4.9330   27.7000   36.1600 C.ar   96  TYR96       0.1957
    111  OH        -3.7710   28.2790   35.6910 O.3    96  TYR96      -0.2866
    112  N         -9.8750   29.7080   38.5390 N.3   101  CYS101     -0.1235
    113  CA        -8.7150   30.5740   38.6910 C.3   101  CYS101      0.1677
    114  C         -9.1160   32.0210   38.4510 C.2   101  CYS101      0.2270
    115  O         -9.5920   32.3600   37.3700 O.2   101  CYS101     -0.2867
    116  CB        -7.6110   30.1890   37.7070 C.3   101  CYS101      0.0956
    117  SG        -6.1440   31.2110   37.9120 S.3   101  CYS101     -0.0801
    118  N        -11.2840   34.7430   35.5990 N.3   104  SER104     -0.1202
    119  CA       -11.1370   34.4600   34.1790 C.3   104  SER104      0.2020
    120  C        -11.4760   32.9970   33.8680 C.2   104  SER104      0.2618
    121  O        -11.9600   32.6820   32.7800 O.2   104  SER104     -0.2717
    122  CB        -9.7080   34.7790   33.7230 C.3   104  SER104      0.2103
    123  OG        -8.7510   34.1010   34.5170 O.3   104  SER104     -0.2182
    124  N        -11.2240   32.1080   34.8260 N.am  105  ILE105     -0.1979
    125  CA       -11.5000   30.6890   34.6400 C.3   105  ILE105      0.1595
    126  C        -12.4680   30.1460   35.6940 C.2   105  ILE105      0.2287
    127  O        -12.0890   29.9210   36.8470 O.2   105  ILE105     -0.2864
    128  CB       -10.2040   29.8400   34.7190 C.3   105  ILE105      0.0276
    129  CG1       -9.1300   30.3910   33.7670 C.3   105  ILE105      0.0022
    130  CG2      -10.5350   28.3830   34.4340 C.3   105  ILE105      0.0022
    131  CD1       -9.5550   30.5200   32.3270 C.3   105  ILE105      0.0001
    132  N         -5.4440   24.7170   25.1020 N.3   113  PHE113     -0.1241
    133  CA        -4.1890   25.4440   24.9550 C.3   113  PHE113      0.1605
    134  C         -3.4340   25.0050   23.7120 C.2   113  PHE113      0.2264
    135  O         -3.4530   23.8300   23.3470 O.2   113  PHE113     -0.2867
    136  CB        -3.2610   25.1850   26.1440 C.3   113  PHE113      0.0534
    137  CG        -3.6070   25.9490   27.3840 C.ar  113  PHE113     -0.0203
    138  CD1       -3.2380   27.2820   27.5210 C.ar  113  PHE113     -0.0042
    139  CD2       -4.2590   25.3210   28.4390 C.ar  113  PHE113     -0.0042
    140  CE1       -3.5080   27.9750   28.6910 C.ar  113  PHE113     -0.0003
    141  CE2       -4.5350   26.0090   29.6150 C.ar  113  PHE113     -0.0003
    142  CZ        -4.1580   27.3360   29.7410 C.ar  113  PHE113     -0.0000
@<TRIPOS>BOND
     1   135   134    2
     2   134   133    1
     3     3     4    2
     4     3     2    1
     5     1     2    1
     6     2     5    1
     7   133   132    1
     8   133   136    1
     9    34    35    2
    10    34    33    1
    11    32    33    1
    12     5     6    1
    13    33    36    1
    14    27    26    2
    15   136   137    1
    16    13    14    1
    17    26    25    1
    18     6     7   ar
    19     6     8   ar
    20     7     9   ar
    21    24    25    1
    22    24    15   am
    23    36    37    1
    24   137   138   ar
    25   137   139   ar
    26     8    10   ar
    27   138   140   ar
    28    25    28    1
    29    14    15    1
    30    14    17    1
    31    37    38    1
    32    43    44    1
    33    15    16    2
    34     9    11   ar
    35   139   141   ar
    36    10    11   ar
    37    95    93   ar
    38    95    94   ar
    39    93    91   ar
    40   140   142   ar
    41    20    22   ar
    42    20    18   ar
    43    17    18    1
    44    11    12    1
    45    46    45    2
    46    28    29    1
    47    22    23   ar
    48    41    40    1
    49    30    29   ar
    50    18    19   ar
    51    38    39    1
    52    44    47    1
    53    44    45    1
    54    40    39    2
    55    40    42    1
    56    47    48    1
    57    29    31   ar
    58    94    92   ar
    59    91    90   ar
    60    91    89   ar
    61    90    88   ar
    62   141   142   ar
    63    23    21   ar
    64    19    21   ar
    65    92    89   ar
    66    89    87   ar
    67    88    87   ar
    68    85    84    2
    69    48    50   ar
    70    48    49   ar
    71    50    52   ar
    72    87    86    1
    73    83    84    1
    74    83    86    1
    75    83    82    1
    76    49    51   ar
    77    52    53   ar
    78   131   129    1
    79   121   120    2
    80    51    53   ar
    81    81    79    1
    82   122   119    1
    83   122   123    1
    84   129   128    1
    85   120   119    1
    86   120   124   am
    87    79    78    1
    88   119   118    1
    89   130   128    1
    90   125   128    1
    91   125   124    1
    92   125   126    1
    93    72    71    1
    94    73    71    1
    95    77    76    2
    96    71    68    1
    97    97    96    1
    98    97    98    1
    99   109   107   ar
   100   109   110   ar
   101    78    80    1
   102    78    75    1
   103   111   110    1
   104   126   127    2
   105    76    75    1
   106   107   105   ar
   107    74    75    1
   108    74    69   am
   109   110   108   ar
   110    68    69    1
   111    68    67    1
   112    98   100   am
   113    98    99    2
   114    69    70    2
   115   100   101    1
   116   105   104    1
   117   105   106   ar
   118   115   114    2
   119    67    60   am
   120   108   106   ar
   121    65    64   ar
   122   104   101    1
   123   116   117    1
   124   116   113    1
   125   101   102    1
   126    61    60    2
   127    60    59    1
   128    62    59    1
   129    62    63    1
   130   114   113    1
   131   112   113    1
   132    64    66   ar
   133    64    63    1
   134   102   103    2
   135    59    58    1
   136    58    56   am
   137    54    55    1
   138    56    55    1
   139    56    57    2
