@<TRIPOS>MOLECULE
tmp/2vn1B00.pdb
 119 115 0 0 0
SMALL
GASTEIGER

@<TRIPOS>ATOM
      1  N          0.1730   19.6910   16.0510 N.3    18  LEU18      -0.1231
      2  CA        -0.0570   20.5520   14.8960 C.3    18  LEU18       0.1693
      3  C          1.2040   20.6110   14.0360 C.2    18  LEU18       0.2591
      4  O          1.1420   20.8390   12.8280 O.2    18  LEU18      -0.2718
      5  CB        -0.4550   21.9550   15.3670 C.3    18  LEU18       0.0284
      6  CG        -1.6140   22.0210   16.3740 C.3    18  LEU18       0.0019
      7  CD1       -1.8630   23.4630   16.7540 C.3    18  LEU18       0.0001
      8  CD2       -2.8840   21.3930   15.7850 C.3    18  LEU18       0.0001
      9  N          2.3510   20.4150   14.6740 N.am   19  LYS19      -0.1980
     10  CA         3.6300   20.4080   13.9810 C.3    19  LYS19       0.1596
     11  C          4.5900   19.5270   14.7710 C.2    19  LYS19       0.2287
     12  O          4.7980   19.7480   15.9660 O.2    19  LYS19      -0.2864
     13  CB         4.2170   21.8170   13.8700 C.3    19  LYS19       0.0298
     14  CG         5.5920   21.8010   13.2190 C.3    19  LYS19       0.0038
     15  CD         6.3770   23.0660   13.4630 C.3    19  LYS19       0.0206
     16  CE         7.8100   22.8890   12.9840 C.3    19  LYS19       0.1093
     17  NZ         8.6630   24.0610   13.3210 N.3    19  LYS19      -0.1314
     18  N          5.5470   29.2160   24.1040 N.3    38  HIS38      -0.1226
     19  CA         4.6280   30.2830   23.7400 C.3    38  HIS38       0.1752
     20  C          3.2990   29.5460   23.8220 C.2    38  HIS38       0.2596
     21  O          3.2310   28.3300   23.5700 O.2    38  HIS38      -0.2718
     22  CB         4.8790   30.8080   22.3290 C.3    38  HIS38       0.0759
     23  CG         5.7000   32.0620   22.2960 C.ar   38  HIS38       0.0818
     24  ND1        5.3860   33.1740   23.0490 N.ar   38  HIS38      -0.2268
     25  CD2        6.8250   32.3770   21.6110 C.ar   38  HIS38       0.1154
     26  CE1        6.2840   34.1180   22.8320 C.ar   38  HIS38       0.1986
     27  NE2        7.1690   33.6600   21.9640 N.ar   38  HIS38      -0.2212
     28  N          2.2450   30.2460   24.2090 N.am   39  TYR39      -0.1962
     29  CA         0.9640   29.5800   24.3230 C.3    39  TYR39       0.1771
     30  C         -0.2030   30.5190   24.0970 C.2    39  TYR39       0.2619
     31  O         -0.0520   31.7390   24.1410 O.2    39  TYR39      -0.2715
     32  CB         0.8400   28.9350   25.7130 C.3    39  TYR39       0.0574
     33  CG         0.6100   29.9330   26.8270 C.ar   39  TYR39      -0.0198
     34  CD1       -0.6840   30.3430   27.1750 C.ar   39  TYR39      -0.0009
     35  CD2        1.6890   30.5170   27.4940 C.ar   39  TYR39      -0.0009
     36  CE1       -0.8920   31.3220   28.1600 C.ar   39  TYR39       0.0417
     37  CE2        1.4940   31.4860   28.4730 C.ar   39  TYR39       0.0417
     38  CZ         0.2070   31.8900   28.8020 C.ar   39  TYR39       0.1957
     39  OH         0.0340   32.8660   29.7590 O.3    39  TYR39      -0.2866
     40  N         -1.3590   29.9160   23.8320 N.am   40  VAL40      -0.1977
     41  CA        -2.6070   30.6330   23.6360 C.3    40  VAL40       0.1596
     42  C         -3.6190   29.7700   24.3770 C.2    40  VAL40       0.2287
     43  O         -3.6900   28.5580   24.1580 O.2    40  VAL40      -0.2864
     44  CB        -3.0180   30.7410   22.1380 C.3    40  VAL40       0.0276
     45  CG1       -4.3620   31.4390   22.0280 C.3    40  VAL40       0.0022
     46  CG2       -1.9740   31.5220   21.3440 C.3    40  VAL40       0.0022
     47  N        -10.5030   33.0460   23.4920 N.3    49  VAL49      -0.1245
     48  CA        -9.1570   33.1090   24.0450 C.3    49  VAL49       0.1561
     49  C         -9.1220   34.0400   25.2550 C.2    49  VAL49       0.2260
     50  O         -9.5770   35.1830   25.1740 O.2    49  VAL49      -0.2867
     51  CB        -8.1740   33.6370   22.9990 C.3    49  VAL49       0.0252
     52  CG1       -6.8340   33.9390   23.6420 C.3    49  VAL49       0.0019
     53  CG2       -8.0270   32.6210   21.8990 C.3    49  VAL49       0.0019
     54  N         -2.5850   34.7720   26.4040 N.3    52  SER52      -0.1217
     55  CA        -1.5460   34.2670   25.5230 C.3    52  SER52       0.1889
     56  C         -0.2200   34.9630   25.7940 C.2    52  SER52       0.2288
     57  O         -0.1890   36.1390   26.1400 O.2    52  SER52      -0.2866
     58  CB        -1.9460   34.4770   24.0610 C.3    52  SER52       0.2089
     59  OG        -0.8870   34.1370   23.1860 O.3    52  SER52      -0.2183
     60  N          1.6760   35.7550   23.6760 N.3    54  PHE54      -0.1227
     61  CA         1.8390   36.6820   22.5620 C.3    54  PHE54       0.1736
     62  C          1.2470   38.0650   22.8450 C.2    54  PHE54       0.2595
     63  O          1.5070   39.0110   22.1000 O.2    54  PHE54      -0.2718
     64  CB         1.2170   36.1150   21.2770 C.3    54  PHE54       0.0547
     65  CG         1.9780   34.9590   20.6890 C.ar   54  PHE54      -0.0202
     66  CD1        1.3710   33.7130   20.5360 C.ar   54  PHE54      -0.0042
     67  CD2        3.2990   35.1100   20.2960 C.ar   54  PHE54      -0.0042
     68  CE1        2.0740   32.6310   20.0000 C.ar   54  PHE54      -0.0003
     69  CE2        4.0110   34.0350   19.7580 C.ar   54  PHE54      -0.0003
     70  CZ         3.3990   32.7950   19.6090 C.ar   54  PHE54      -0.0000
     71  N          0.4560   38.1950   23.9100 N.am   55  ASP55      -0.1974
     72  CA        -0.1280   39.4960   24.2420 C.3    55  ASP55       0.1709
     73  C          1.0070   40.4140   24.6500 C.2    55  ASP55       0.2293
     74  O          1.0140   41.6050   24.3530 O.2    55  ASP55      -0.2864
     75  CB        -1.0920   39.4120   25.4330 C.3    55  ASP55       0.1436
     76  CG        -2.2330   38.4500   25.2060 C.2    55  ASP55       0.3671
     77  OD1       -2.6560   38.2820   24.0500 O.co2  55  ASP55      -0.2456
     78  OD2       -2.7270   37.8710   26.1960 O.co2  55  ASP55      -0.2456
     79  N          4.5200   21.9270   18.0150 N.3    85  LYS85      -0.1231
     80  CA         3.3760   22.8100   18.2250 C.3    85  LYS85       0.1693
     81  C          2.2310   21.8410   18.4640 C.2    85  LYS85       0.2592
     82  O          2.0730   20.8690   17.7210 O.2    85  LYS85      -0.2718
     83  CB         3.0510   23.6470   16.9810 C.3    85  LYS85       0.0285
     84  CG         3.8720   24.9290   16.7970 C.3    85  LYS85       0.0035
     85  CD         3.4610   25.6400   15.5050 C.3    85  LYS85       0.0206
     86  CE         4.1490   26.9870   15.3230 C.3    85  LYS85       0.1093
     87  NZ         5.5930   26.8510   14.9870 N.3    85  LYS85      -0.1314
     88  N          1.4420   22.0790   19.5030 N.am   86  CYS86      -0.1970
     89  CA         0.3250   21.1930   19.7720 C.3    86  CYS86       0.1712
     90  C         -0.8790   21.9280   20.3450 C.2    86  CYS86       0.2296
     91  O         -0.7950   23.0880   20.7780 O.2    86  CYS86      -0.2864
     92  CB         0.7380   20.0950   20.7540 C.3    86  CYS86       0.0983
     93  SG         0.8020   20.6600   22.4660 S.3    86  CYS86      -0.0798
     94  N         -2.7840   25.9670   23.0690 N.3   114  GLU114     -0.1231
     95  CA        -1.9350   25.7050   21.9220 C.3   114  GLU114      0.1699
     96  C         -0.5580   26.0230   22.4900 C.2   114  GLU114      0.2592
     97  O         -0.3010   27.1210   22.9940 O.2   114  GLU114     -0.2718
     98  CB        -2.2780   26.6200   20.7440 C.3   114  GLU114      0.0402
     99  CG        -3.5650   26.2090   20.0370 C.3   114  GLU114      0.1161
    100  CD        -3.8600   27.0560   18.8190 C.2   114  GLU114      0.3649
    101  OE1       -4.0850   28.2760   18.9730 O.co2 114  GLU114     -0.2457
    102  OE2       -3.8680   26.5000   17.7040 O.co2 114  GLU114     -0.2457
    103  N          0.3210   25.0390   22.4480 N.am  115  ILE115     -0.1966
    104  CA         1.6400   25.2220   23.0070 C.3   115  ILE115      0.1727
    105  C          2.7340   24.9590   21.9940 C.2   115  ILE115      0.2616
    106  O          2.6500   24.0220   21.1990 O.2   115  ILE115     -0.2715
    107  CB         1.8410   24.2910   24.2170 C.3   115  ILE115      0.0290
    108  CG1        0.7510   24.5670   25.2560 C.3   115  ILE115      0.0022
    109  CG2        3.2340   24.4940   24.8100 C.3   115  ILE115      0.0023
    110  CD1        0.6990   23.5590   26.3990 C.3   115  ILE115      0.0001
    111  N          3.7530   25.8110   22.0320 N.am  116  GLU116     -0.1977
    112  CA         4.9070   25.7030   21.1550 C.3   116  GLU116      0.1602
    113  C          6.1380   25.5990   22.0540 C.2   116  GLU116      0.2287
    114  O          6.4570   26.5340   22.7880 O.2   116  GLU116     -0.2864
    115  CB         4.9960   26.9460   20.2570 C.3   116  GLU116      0.0415
    116  CG         6.2930   27.0780   19.4700 C.3   116  GLU116      0.1163
    117  CD         6.3260   28.3120   18.5800 C.2   116  GLU116      0.3649
    118  OE1        6.0030   29.4170   19.0600 O.co2 116  GLU116     -0.2457
    119  OE2        6.6840   28.1800   17.3960 O.co2 116  GLU116     -0.2457
@<TRIPOS>BOND
     1     4     3    2
     2    16    17    1
     3    16    15    1
     4    14    15    1
     5    14    13    1
     6    13    10    1
     7    10     9    1
     8    10    11    1
     9     3     9   am
    10     3     2    1
    11    11    12    2
    12     2     5    1
    13     2     1    1
    14    87    86    1
    15    86    85    1
    16     5     6    1
    17    85    84    1
    18     8     6    1
    19     6     7    1
    20    84    83    1
    21    83    80    1
    22   119   117   ar
    23   102   100   ar
    24    82    81    2
    25    79    80    1
    26    80    81    1
    27    81    88   am
    28   117   118   ar
    29   117   116    1
    30   100   101   ar
    31   100    99    1
    32   116   115    1
    33    88    89    1
    34    70    69   ar
    35    70    68   ar
    36    69    67   ar
    37    89    90    1
    38    89    92    1
    39    68    66   ar
    40    99    98    1
    41   115   112    1
    42    67    65   ar
    43    90    91    2
    44    66    65   ar
    45    65    64    1
    46    98    95    1
    47    92    93    1
    48   112   111    1
    49   112   113    1
    50   106   105    2
    51    64    61    1
    52    46    44    1
    53    25    27   ar
    54    25    23   ar
    55    53    51    1
    56    95    96    1
    57    95    94    1
    58    27    26   ar
    59   105   111   am
    60   105   104    1
    61    45    44    1
    62   113   114    2
    63    63    62    2
    64    44    41    1
    65    23    22    1
    66    23    24   ar
    67    22    19    1
    68   103    96   am
    69   103   104    1
    70    96    97    2
    71    61    62    1
    72    61    60    1
    73    26    24   ar
    74    62    71   am
    75    51    52    1
    76    51    48    1
    77   104   107    1
    78    59    58    1
    79    47    48    1
    80    21    20    2
    81    41    40    1
    82    41    42    1
    83    19    20    1
    84    19    18    1
    85    20    28   am
    86    40    30   am
    87    71    72    1
    88    48    49    1
    89    77    76   ar
    90    58    55    1
    91    30    31    2
    92    30    29    1
    93    43    42    2
    94    28    29    1
    95   107   109    1
    96   107   108    1
    97    72    73    1
    98    72    75    1
    99    29    32    1
   100    74    73    2
   101    50    49    2
   102    76    75    1
   103    76    78   ar
   104   108   110    1
   105    55    56    1
   106    55    54    1
   107    32    33    1
   108    56    57    2
   109    33    34   ar
   110    33    35   ar
   111    34    36   ar
   112    35    37   ar
   113    36    38   ar
   114    37    38   ar
   115    38    39    1
