@<TRIPOS>MOLECULE
tmp/2vn4A05.pdb
 172 172 0 0 0
SMALL
GASTEIGER

@<TRIPOS>ATOM
      1  N         -5.0890   16.1590  -32.6260 N.3    38  ALA38      -0.1245
      2  CA        -5.4540   16.7060  -31.3290 C.3    38  ALA38       0.1562
      3  C         -6.0510   18.1270  -31.4890 C.2    38  ALA38       0.2260
      4  O         -6.9370   18.5130  -30.7470 O.2    38  ALA38      -0.2867
      5  CB        -4.2480   16.6970  -30.3770 C.3    38  ALA38       0.0290
      6  N          0.1340   21.1590  -31.9960 N.3    47  TYR47      -0.1241
      7  CA        -0.6140   19.9680  -31.5810 C.3    47  TYR47       0.1605
      8  C         -0.9840   19.0880  -32.7720 C.2    47  TYR47       0.2264
      9  O         -1.8660   18.2260  -32.6860 O.2    47  TYR47      -0.2867
     10  CB        -1.8950   20.3670  -30.8470 C.3    47  TYR47       0.0534
     11  CG        -1.7720   20.7090  -29.3720 C.ar   47  TYR47      -0.0201
     12  CD1       -0.5920   21.2310  -28.8260 C.ar   47  TYR47      -0.0009
     13  CD2       -2.8730   20.5340  -28.5260 C.ar   47  TYR47      -0.0009
     14  CE1       -0.5210   21.5790  -27.4650 C.ar   47  TYR47       0.0417
     15  CE2       -2.8180   20.8790  -27.1970 C.ar   47  TYR47       0.0417
     16  CZ        -1.6440   21.4000  -26.6650 C.ar   47  TYR47       0.1957
     17  OH        -1.6060   21.7490  -25.3400 O.3    47  TYR47      -0.2866
     18  N         -2.5230   11.6200  -30.9930 N.3    51  TRP51      -0.1241
     19  CA        -2.2730   10.9760  -29.7200 C.3    51  TRP51       0.1605
     20  C         -3.1430    9.7390  -29.5770 C.2    51  TRP51       0.2264
     21  O         -4.3260    9.7730  -29.9060 O.2    51  TRP51      -0.2867
     22  CB        -2.6040   11.9350  -28.5800 C.3    51  TRP51       0.0550
     23  CG        -1.4790   12.8180  -28.1110 C.ar   51  TRP51       0.0003
     24  CD1       -0.6720   12.6130  -27.0130 C.ar   51  TRP51       0.0946
     25  CD2       -1.0750   14.0680  -28.6730 C.ar   51  TRP51       0.0152
     26  NE1        0.2130   13.6600  -26.8710 N.ar   51  TRP51      -0.2442
     27  CE2       -0.0170   14.5720  -27.8680 C.ar   51  TRP51       0.0810
     28  CE3       -1.5040   14.8220  -29.7750 C.ar   51  TRP51       0.0012
     29  CZ2        0.6280   15.7910  -28.1450 C.ar   51  TRP51       0.0191
     30  CZ3       -0.8630   16.0410  -30.0430 C.ar   51  TRP51       0.0001
     31  CH2        0.1970   16.5040  -29.2350 C.ar   51  TRP51       0.0015
     32  N         -4.2290    8.5520  -26.7440 N.3    53  ARG53      -0.1231
     33  CA        -5.2430    8.8750  -25.7360 C.3    53  ARG53       0.1694
     34  C         -6.3990    9.7080  -26.3140 C.2    53  ARG53       0.2592
     35  O         -7.5540    9.2800  -26.2470 O.2    53  ARG53      -0.2718
     36  CB        -4.6140    9.5770  -24.5350 C.3    53  ARG53       0.0321
     37  CG        -5.6190   10.3190  -23.6080 C.3    53  ARG53       0.0489
     38  CD        -4.9040   10.8930  -22.3850 C.3    53  ARG53       0.2205
     39  NE        -3.7940   11.7130  -22.8280 N.pl3  53  ARG53      -0.0865
     40  CZ        -2.5090   11.3580  -22.7680 C.cat  53  ARG53       0.5346
     41  NH1       -2.1510   10.2060  -22.1920 N.pl3  53  ARG53       0.1354
     42  NH2       -1.5850   12.1840  -23.2540 N.pl3  53  ARG53       0.1354
     43  N         -6.0970   10.8830  -26.8720 N.am   54  ASP54      -0.1974
     44  CA        -7.1660   11.7490  -27.4020 C.3    54  ASP54       0.1709
     45  C         -8.0060   11.0100  -28.4330 C.2    54  ASP54       0.2293
     46  O         -9.2360   11.1440  -28.4570 O.2    54  ASP54      -0.2864
     47  CB        -6.6120   13.0130  -28.0660 C.3    54  ASP54       0.1436
     48  CG        -5.7790   13.8710  -27.1230 C.2    54  ASP54       0.3671
     49  OD1       -4.9670   13.3200  -26.3540 O.co2  54  ASP54      -0.2456
     50  OD2       -5.9010   15.1070  -27.2060 O.co2  54  ASP54      -0.2456
     51  N         10.0950   13.3580  -25.7700 N.3   120  TRP120     -0.1241
     52  CA         8.7260   13.4790  -25.2870 C.3   120  TRP120      0.1605
     53  C          8.6170   12.6910  -23.9840 C.2   120  TRP120      0.2264
     54  O          9.4710   11.8400  -23.7080 O.2   120  TRP120     -0.2867
     55  CB         7.7320   12.9450  -26.3320 C.3   120  TRP120      0.0550
     56  CG         6.3630   13.5450  -26.1420 C.ar  120  TRP120      0.0003
     57  CD1        5.2520   12.9220  -25.6490 C.ar  120  TRP120      0.0946
     58  CD2        5.9810   14.9040  -26.4040 C.ar  120  TRP120      0.0152
     59  NE1        4.1950   13.8110  -25.5900 N.ar  120  TRP120     -0.2442
     60  CE2        4.6160   15.0320  -26.0470 C.ar  120  TRP120      0.0810
     61  CE3        6.6600   16.0290  -26.9010 C.ar  120  TRP120      0.0012
     62  CZ2        3.9110   16.2380  -26.1840 C.ar  120  TRP120      0.0191
     63  CZ3        5.9570   17.2300  -27.0330 C.ar  120  TRP120      0.0001
     64  CH2        4.5940   17.3210  -26.6640 C.ar  120  TRP120      0.0015
     65  N         -1.4580   11.5090  -17.9040 N.3   177  LEU177     -0.1231
     66  CA        -2.2250   11.9850  -19.0570 C.3   177  LEU177      0.1693
     67  C         -1.8810   13.4300  -19.4570 C.2   177  LEU177      0.2592
     68  O         -2.1350   13.8200  -20.6010 O.2   177  LEU177     -0.2718
     69  CB        -3.7410   11.8350  -18.8340 C.3   177  LEU177      0.0284
     70  CG        -4.4720   12.8860  -17.9990 C.3   177  LEU177      0.0019
     71  CD1       -5.9850   12.6600  -18.0670 C.3   177  LEU177      0.0001
     72  CD2       -4.0040   12.9060  -16.5390 C.3   177  LEU177      0.0001
     73  N         -1.3070   14.2100  -18.5280 N.am  178  TRP178     -0.1962
     74  CA        -0.8090   15.5640  -18.8580 C.3   178  TRP178      0.1771
     75  C          0.6230   15.5820  -19.4090 C.2   178  TRP178      0.2620
     76  O          1.1380   16.6510  -19.7690 O.2   178  TRP178     -0.2715
     77  CB        -0.9030   16.5170  -17.6610 C.3   178  TRP178      0.0590
     78  CG        -2.2550   16.5530  -17.0060 C.ar  178  TRP178      0.0006
     79  CD1       -2.5110   16.5010  -15.6610 C.ar  178  TRP178      0.0946
     80  CD2       -3.5280   16.6460  -17.6560 C.ar  178  TRP178      0.0152
     81  NE1       -3.8620   16.5530  -15.4390 N.ar  178  TRP178     -0.2442
     82  CE2       -4.5120   16.6370  -16.6420 C.ar  178  TRP178      0.0810
     83  CE3       -3.9340   16.7330  -18.9970 C.ar  178  TRP178      0.0012
     84  CZ2       -5.8960   16.7060  -16.9230 C.ar  178  TRP178      0.0191
     85  CZ3       -5.3230   16.8170  -19.2830 C.ar  178  TRP178      0.0001
     86  CH2       -6.2760   16.7980  -18.2460 C.ar  178  TRP178      0.0015
     87  N          1.2470   14.4060  -19.4510 N.am  179  GLU179     -0.1963
     88  CA         2.5300   14.1690  -20.1110 C.3   179  GLU179      0.1733
     89  C          3.6730   14.8640  -19.3770 C.2   179  GLU179      0.2616
     90  O          4.6350   15.2890  -20.0110 O.2   179  GLU179     -0.2715
     91  CB         2.5000   14.6170  -21.5820 C.3   179  GLU179      0.0429
     92  CG         1.1670   14.3320  -22.2780 C.3   179  GLU179      0.1163
     93  CD         1.2770   14.4280  -23.7800 C.2   179  GLU179      0.3649
     94  OE1        1.7310   13.4550  -24.4050 O.co2 179  GLU179     -0.2457
     95  OE2        0.8820   15.4710  -24.3320 O.co2 179  GLU179     -0.2457
     96  N          3.5690   14.9450  -18.0510 N.am  180  GLU180     -0.1977
     97  CA         4.4900   15.7450  -17.2420 C.3   180  GLU180      0.1602
     98  C          5.1300   14.9500  -16.1000 C.2   180  GLU180      0.2287
     99  O          6.2750   15.1920  -15.7430 O.2   180  GLU180     -0.2864
    100  CB         3.7510   16.9450  -16.6340 C.3   180  GLU180      0.0415
    101  CG         3.2740   17.9630  -17.6620 C.3   180  GLU180      0.1163
    102  CD         2.2510   18.9610  -17.1140 C.2   180  GLU180      0.3649
    103  OE1        1.6020   18.7050  -16.0670 O.co2 180  GLU180     -0.2457
    104  OE2        2.0880   20.0160  -17.7710 O.co2 180  GLU180     -0.2457
    105  N         -6.5950   22.0210  -14.4670 N.3   309  ARG309     -0.1245
    106  CA        -6.0860   20.6610  -14.3400 C.3   309  ARG309      0.1563
    107  C         -5.6520   20.4310  -12.8920 C.2   309  ARG309      0.2260
    108  O         -6.0930   19.4880  -12.2280 O.2   309  ARG309     -0.2867
    109  CB        -4.9030   20.4500  -15.2840 C.3   309  ARG309      0.0307
    110  CG        -5.2180   20.6880  -16.7900 C.3   309  ARG309      0.0489
    111  CD        -4.0640   20.1390  -17.6300 C.3   309  ARG309      0.2205
    112  NE        -2.8380   20.9160  -17.4240 N.pl3 309  ARG309     -0.0865
    113  CZ        -1.6900   20.6590  -18.0410 C.cat 309  ARG309      0.5346
    114  NH1       -1.6170   19.6370  -18.9040 N.pl3 309  ARG309      0.1354
    115  NH2       -0.6100   21.3920  -17.7740 N.pl3 309  ARG309      0.1354
    116  N          1.4470   25.7340  -17.1150 N.3   315  TYR315     -0.1241
    117  CA         1.3390   25.6280  -18.5770 C.3   315  TYR315      0.1605
    118  C          0.4730   26.7720  -19.1020 C.2   315  TYR315      0.2264
    119  O         -0.7030   26.8830  -18.7390 O.2   315  TYR315     -0.2867
    120  CB         0.7650   24.2590  -18.9610 C.3   315  TYR315      0.0534
    121  CG         0.6990   23.9830  -20.4570 C.ar  315  TYR315     -0.0201
    122  CD1        1.8330   24.1210  -21.2650 C.ar  315  TYR315     -0.0009
    123  CD2       -0.4830   23.5450  -21.0490 C.ar  315  TYR315     -0.0009
    124  CE1        1.7880   23.8560  -22.6360 C.ar  315  TYR315      0.0417
    125  CE2       -0.5440   23.2710  -22.4260 C.ar  315  TYR315      0.0417
    126  CZ         0.5950   23.4240  -23.2110 C.ar  315  TYR315      0.1957
    127  OH         0.5470   23.1620  -24.5780 O.3   315  TYR315     -0.2866
    128  N         -9.6110   24.8660  -17.9120 N.3   321  TRP321     -0.1241
    129  CA        -9.7390   24.1200  -19.1520 C.3   321  TRP321      0.1605
    130  C        -11.2050   23.7980  -19.3400 C.2   321  TRP321      0.2264
    131  O        -11.8850   23.4550  -18.3790 O.2   321  TRP321     -0.2867
    132  CB        -8.9760   22.7840  -19.0480 C.3   321  TRP321      0.0550
    133  CG        -7.4690   22.9050  -19.1970 C.ar  321  TRP321      0.0003
    134  CD1       -6.6520   23.8450  -18.6260 C.ar  321  TRP321      0.0946
    135  CD2       -6.6180   22.0580  -19.9780 C.ar  321  TRP321      0.0152
    136  NE1       -5.3460   23.6400  -19.0170 N.ar  321  TRP321     -0.2442
    137  CE2       -5.2930   22.5430  -19.8340 C.ar  321  TRP321      0.0810
    138  CE3       -6.8460   20.9330  -20.7800 C.ar  321  TRP321      0.0012
    139  CZ2       -4.1980   21.9520  -20.4810 C.ar  321  TRP321      0.0191
    140  CZ3       -5.7440   20.3260  -21.4210 C.ar  321  TRP321      0.0001
    141  CH2       -4.4400   20.8300  -21.2490 C.ar  321  TRP321      0.0015
    142  N         -8.3200   24.7750  -25.9440 N.3   404  GLU404     -0.1245
    143  CA        -7.9250   23.9270  -24.8380 C.3   404  GLU404      0.1567
    144  C         -8.2470   24.6350  -23.5240 C.2   404  GLU404      0.2260
    145  O         -8.7640   24.0130  -22.5770 O.2   404  GLU404     -0.2867
    146  CB        -6.4210   23.6920  -24.9180 C.3   404  GLU404      0.0388
    147  CG        -5.8740   22.7210  -23.8760 C.3   404  GLU404      0.1160
    148  CD        -4.3720   22.6670  -23.9490 C.2   404  GLU404      0.3649
    149  OE1       -3.7270   23.6870  -23.6180 O.co2 404  GLU404     -0.2457
    150  OE2       -3.8360   21.6190  -24.3690 O.co2 404  GLU404     -0.2457
    151  N         -9.6490   22.1120  -29.8880 N.3   419  LEU419     -0.1245
    152  CA        -9.1460   20.8860  -29.2930 C.3   419  LEU419      0.1561
    153  C        -10.2080   19.8090  -29.3870 C.2   419  LEU419      0.2260
    154  O        -11.3110   19.9700  -28.8610 O.2   419  LEU419     -0.2867
    155  CB        -8.7340   21.0910  -27.8260 C.3   419  LEU419      0.0270
    156  CG        -7.9740   19.9060  -27.2140 C.3   419  LEU419      0.0019
    157  CD1       -6.5230   19.9430  -27.6740 C.3   419  LEU419      0.0001
    158  CD2       -8.0620   19.9820  -25.6700 C.3   419  LEU419      0.0001
    159  N        -10.5730   16.9730  -27.9830 N.3   421  TRP421     -0.1241
    160  CA       -11.0480   16.5130  -26.6870 C.3   421  TRP421      0.1605
    161  C        -12.0410   17.5090  -26.0350 C.2   421  TRP421      0.2264
    162  O        -12.9740   17.0840  -25.3670 O.2   421  TRP421     -0.2867
    163  CB        -9.8370   16.2110  -25.7970 C.3   421  TRP421      0.0550
    164  CG       -10.0750   15.4930  -24.5090 C.ar  421  TRP421      0.0003
    165  CD1      -11.2760   15.2080  -23.8940 C.ar  421  TRP421      0.0946
    166  CD2       -9.0570   15.0460  -23.6170 C.ar  421  TRP421      0.0152
    167  NE1      -11.0500   14.5820  -22.6840 N.ar  421  TRP421     -0.2442
    168  CE2       -9.6990   14.4870  -22.4830 C.ar  421  TRP421      0.0810
    169  CE3       -7.6570   15.0590  -23.6690 C.ar  421  TRP421      0.0012
    170  CZ2       -8.9860   13.9290  -21.4190 C.ar  421  TRP421      0.0191
    171  CZ3       -6.9440   14.5080  -22.6010 C.ar  421  TRP421      0.0001
    172  CH2       -7.6170   13.9550  -21.4890 C.ar  421  TRP421      0.0015
@<TRIPOS>BOND
     1     8     9    2
     2     8     7    1
     3     1     2    1
     4     6     7    1
     5     7    10    1
     6     3     2    1
     7     3     4    2
     8     2     5    1
     9    18    19    1
    10    10    11    1
    11    30    28   ar
    12    30    31   ar
    13    21    20    2
    14   151   152    1
    15    28    25   ar
    16    19    20    1
    17    19    22    1
    18   153   152    1
    19   153   154    2
    20    11    12   ar
    21    11    13   ar
    22   152   155    1
    23    31    29   ar
    24    12    14   ar
    25    25    23   ar
    26    25    27   ar
    27    22    23    1
    28    13    15   ar
    29    46    45    2
    30    45    44    1
    31    29    27   ar
    32    23    24   ar
    33    47    44    1
    34    47    48    1
    35   159   160    1
    36    27    26   ar
    37   155   156    1
    38   157   156    1
    39    14    16   ar
    40    44    43    1
    41   156   158    1
    42    50    48   ar
    43    15    16   ar
    44    48    49   ar
    45    63    61   ar
    46    63    64   ar
    47    24    26   ar
    48    61    58   ar
    49    43    34   am
    50    32    33    1
    51   160   161    1
    52   160   163    1
    53    16    17    1
    54    64    62   ar
    55    58    56   ar
    56    58    60   ar
    57    55    56    1
    58    55    52    1
    59    34    35    2
    60    34    33    1
    61    62    60   ar
    62    56    57   ar
    63    60    59   ar
    64   161   162    2
    65   142   143    1
    66   163   164    1
    67    51    52    1
    68    33    36    1
    69    57    59   ar
    70    52    53    1
    71   146   143    1
    72   146   147    1
    73   143   144    1
    74   127   126    1
    75    36    37    1
    76   164   165   ar
    77   164   166   ar
    78    94    93   ar
    79   150   148   ar
    80    95    93   ar
    81    53    54    2
    82   148   147    1
    83   148   149   ar
    84   165   167   ar
    85    93    92    1
    86   169   166   ar
    87   169   171   ar
    88   166   168   ar
    89    37    38    1
    90   144   145    2
    91    42    40    1
    92   126   124   ar
    93   126   125   ar
    94    39    40    2
    95    39    38    1
    96    40    41    1
    97   167   168   ar
    98   124   122   ar
    99   171   172   ar
   100   168   170   ar
   101   125   123   ar
   102    92    91    1
   103    91    88    1
   104   172   170   ar
   105   140   141   ar
   106   140   138   ar
   107   122   121   ar
   108   141   139   ar
   109   123   121   ar
   110   138   135   ar
   111    68    67    2
   112   139   137   ar
   113   121   120    1
   114    88    87    1
   115    88    89    1
   116    90    89    2
   117   135   137   ar
   118   135   133   ar
   119   137   136   ar
   120    76    75    2
   121    67    66    1
   122    67    73   am
   123    87    75   am
   124    75    74    1
   125    89    96   am
   126   130   129    1
   127   130   131    2
   128    85    83   ar
   129    85    86   ar
   130   133   132    1
   131   133   134   ar
   132   129   132    1
   133   129   128    1
   134   118   119    2
   135   118   117    1
   136    66    69    1
   137    66    65    1
   138   136   134   ar
   139    83    80   ar
   140   120   117    1
   141   114   113    1
   142    74    73    1
   143    74    77    1
   144    69    70    1
   145   117   116    1
   146    86    84   ar
   147    71    70    1
   148    96    97    1
   149   113   115    1
   150   113   112    2
   151    70    72    1
   152   104   102   ar
   153   101   102    1
   154   101   100    1
   155    77    78    1
   156    80    78   ar
   157    80    82   ar
   158   111   112    1
   159   111   110    1
   160    97   100    1
   161    97    98    1
   162   102   103   ar
   163    78    79   ar
   164    84    82   ar
   165   110   109    1
   166    82    81   ar
   167    98    99    2
   168    79    81   ar
   169   109   106    1
   170   105   106    1
   171   106   107    1
   172   107   108    2
