@<TRIPOS>MOLECULE
tmp/2vn4A04.pdb
 107 103 0 0 0
SMALL
GASTEIGER

@<TRIPOS>ATOM
      1  N          1.5140   -2.8490  -16.4970 N.3   170  TRP170     -0.1227
      2  CA         0.7410   -1.9780  -15.5900 C.3   170  TRP170      0.1737
      3  C          1.5250   -1.5880  -14.3340 C.2   170  TRP170      0.2595
      4  O          1.3900   -0.4730  -13.8090 O.2   170  TRP170     -0.2718
      5  CB        -0.6000   -2.6260  -15.2060 C.3   170  TRP170      0.0564
      6  CG        -0.4760   -3.7410  -14.2110 C.ar  170  TRP170      0.0003
      7  CD1       -0.3350   -5.0760  -14.4830 C.ar  170  TRP170      0.0946
      8  CD2       -0.4700   -3.6170  -12.7810 C.ar  170  TRP170      0.0152
      9  NE1       -0.2500   -5.7870  -13.3110 N.ar  170  TRP170     -0.2442
     10  CE2       -0.3290   -4.9230  -12.2510 C.ar  170  TRP170      0.0810
     11  CE3       -0.5760   -2.5290  -11.8970 C.ar  170  TRP170      0.0012
     12  CZ2       -0.2930   -5.1750  -10.8730 C.ar  170  TRP170      0.0191
     13  CZ3       -0.5380   -2.7710  -10.5270 C.ar  170  TRP170      0.0001
     14  CH2       -0.3980   -4.0900  -10.0260 C.ar  170  TRP170      0.0015
     15  N          2.3620   -2.5050  -13.8510 N.am  171  ASN171     -0.1960
     16  CA         3.0570   -2.2820  -12.5940 C.3   171  ASN171      0.1819
     17  C          4.3900   -1.5510  -12.7940 C.2   171  ASN171      0.2621
     18  O          5.3270   -1.7080  -12.0110 O.2   171  ASN171     -0.2715
     19  CB         3.2010   -3.6070  -11.8280 C.3   171  ASN171      0.1195
     20  CG         3.6530   -3.4200  -10.3890 C.2   171  ASN171      0.2630
     21  OD1        4.5280   -4.1530   -9.9190 O.2   171  ASN171     -0.2716
     22  ND2        3.0780   -2.4340   -9.6940 N.am  171  ASN171     -0.0877
     23  N          4.4400   -0.7180  -13.8340 N.am  172  GLN172     -0.1963
     24  CA         5.6260    0.0690  -14.1830 C.3   172  GLN172      0.1733
     25  C          5.2710    1.5490  -14.2680 C.2   172  GLN172      0.2617
     26  O          4.1680    1.8920  -14.7040 O.2   172  GLN172     -0.2715
     27  CB         6.1890   -0.3790  -15.5390 C.3   172  GLN172      0.0408
     28  CG         6.6200   -1.8460  -15.6090 C.3   172  GLN172      0.0908
     29  CD         7.8360   -2.1490  -14.7430 C.2   172  GLN172      0.2608
     30  OE1        7.7790   -2.9920  -13.8450 O.2   172  GLN172     -0.2717
     31  NE2        8.9390   -1.4580  -15.0060 N.am  172  GLN172     -0.0878
     32  N          6.2000    2.4170  -13.8740 N.am  173  THR173     -0.1951
     33  CA         5.9560    3.8690  -13.9420 C.3   173  THR173      0.1897
     34  C          5.9320    4.3490  -15.3850 C.2   173  THR173      0.2313
     35  O          6.4230    3.6750  -16.2960 O.2   173  THR173     -0.2863
     36  CB         7.0120    4.6940  -13.1800 C.3   173  THR173      0.1794
     37  OG1        8.3090    4.4270  -13.7300 O.3   173  THR173     -0.2208
     38  CG2        7.0010    4.3520  -11.6940 C.3   173  THR173      0.0378
     39  N          3.1250    6.6610  -11.0330 N.3   184  SER184     -0.1217
     40  CA         1.9270    5.8290  -11.1620 C.3   184  SER184      0.1889
     41  C          0.7310    6.7660  -11.0820 C.2   184  SER184      0.2288
     42  O          0.6230    7.5350  -10.1370 O.2   184  SER184     -0.2866
     43  CB         1.8450    4.7880  -10.0400 C.3   184  SER184      0.2089
     44  OG         2.9940    3.9360  -10.0510 O.3   184  SER184     -0.2183
     45  N         -5.6110   -7.3910   -9.1330 N.3   219  GLN219     -0.1245
     46  CA        -4.3880   -6.7880   -8.5950 C.3   219  GLN219      0.1566
     47  C         -4.2510   -5.3110   -8.9840 C.2   219  GLN219      0.2260
     48  O         -3.7180   -4.5020   -8.2090 O.2   219  GLN219     -0.2867
     49  CB        -3.1570   -7.5760   -9.0450 C.3   219  GLN219      0.0367
     50  CG        -3.1390   -8.9940   -8.4800 C.3   219  GLN219      0.0905
     51  CD        -3.3480   -9.0000   -6.9770 C.2   219  GLN219      0.2608
     52  OE1       -2.7610   -8.1910   -6.2480 O.2   219  GLN219     -0.2717
     53  NE2       -4.2090   -9.8930   -6.5070 N.am  219  GLN219     -0.0878
     54  N         -4.2050   -2.0610   -6.3330 N.3   223  PHE223     -0.1241
     55  CA        -3.2770   -0.9460   -6.3760 C.3   223  PHE223      0.1605
     56  C         -4.0180    0.4040   -6.4340 C.2   223  PHE223      0.2264
     57  O         -3.5810    1.3830   -5.8310 O.2   223  PHE223     -0.2867
     58  CB        -2.3250   -1.1060   -7.5690 C.3   223  PHE223      0.0534
     59  CG        -1.2970   -0.0100   -7.6820 C.ar  223  PHE223     -0.0203
     60  CD1       -0.5680    0.4020   -6.5730 C.ar  223  PHE223     -0.0042
     61  CD2       -1.0400    0.5950   -8.9140 C.ar  223  PHE223     -0.0042
     62  CE1        0.3800    1.4160   -6.6750 C.ar  223  PHE223     -0.0003
     63  CE2       -0.0860    1.6100   -9.0280 C.ar  223  PHE223     -0.0003
     64  CZ         0.6260    2.0220   -7.9080 C.ar  223  PHE223     -0.0000
     65  N         -4.7010    2.4620   -3.2620 N.3   226  ARG226     -0.1245
     66  CA        -3.5960    3.1480   -2.5960 C.3   226  ARG226      0.1563
     67  C         -3.4970    4.6470   -2.9160 C.2   226  ARG226      0.2260
     68  O         -2.7020    5.3560   -2.2960 O.2   226  ARG226     -0.2867
     69  CB        -2.2620    2.4490   -2.9000 C.3   226  ARG226      0.0307
     70  CG        -2.2130    0.9490   -2.5310 C.3   226  ARG226      0.0489
     71  CD        -2.0680    0.6960   -1.0180 C.3   226  ARG226      0.2205
     72  NE        -3.3100    0.9270   -0.2790 N.pl3 226  ARG226     -0.0865
     73  CZ        -4.3210    0.0630   -0.1940 C.cat 226  ARG226      0.5346
     74  NH1       -4.2650   -1.1090   -0.8150 N.pl3 226  ARG226      0.1354
     75  NH2       -5.4010    0.3790    0.5090 N.pl3 226  ARG226      0.1354
     76  N          1.2780    8.8770   -7.6650 N.3   239  ILE239     -0.1231
     77  CA         2.1250    8.3940   -6.5800 C.3   239  ILE239      0.1692
     78  C          3.3850    7.7500   -7.1790 C.2   239  ILE239      0.2592
     79  O          3.5820    7.7990   -8.3990 O.2   239  ILE239     -0.2718
     80  CB         1.3430    7.4380   -5.6130 C.3   239  ILE239      0.0266
     81  CG1        0.9150    6.1520   -6.3400 C.3   239  ILE239      0.0019
     82  CG2        0.1250    8.1800   -4.9880 C.3   239  ILE239      0.0020
     83  CD1        0.1490    5.1180   -5.4620 C.3   239  ILE239      0.0001
     84  N          4.2420    7.1620   -6.3380 N.am  240  ASN240     -0.1974
     85  CA         5.5240    6.6190   -6.8210 C.3   240  ASN240      0.1688
     86  C          6.3390    7.6770   -7.5710 C.2   240  ASN240      0.2292
     87  O          7.0150    7.3750   -8.5510 O.2   240  ASN240     -0.2864
     88  CB         5.3010    5.3800   -7.7060 C.3   240  ASN240      0.1181
     89  CG         4.8710    4.1620   -6.9130 C.2   240  ASN240      0.2629
     90  OD1        5.2230    4.0160   -5.7400 O.2   240  ASN240     -0.2716
     91  ND2        4.1000    3.2810   -7.5460 N.am  240  ASN240     -0.0877
     92  N         -2.2770   -7.5660   -1.8110 N.3   453  CYS453     -0.1221
     93  CA        -1.8980   -7.1260   -3.1740 C.3   453  CYS453      0.1808
     94  C         -0.4920   -7.6230   -3.5380 C.2   453  CYS453      0.2602
     95  O          0.3690   -7.7410   -2.6660 O.2   453  CYS453     -0.2717
     96  CB        -1.8660   -5.5820   -3.3120 C.3   453  CYS453      0.0970
     97  SG        -3.2990   -4.4720   -2.9100 S.3   453  CYS453     -0.0800
     98  N         -0.2640   -7.8990   -4.8230 N.am  454  SER454     -0.1938
     99  CA         1.0700   -8.0960   -5.3700 C.3   454  SER454      0.2055
    100  C          1.1220   -7.4120   -6.7310 C.2   454  SER454      0.2643
    101  O          0.0790   -7.1590   -7.3520 O.2   454  SER454     -0.2714
    102  CB         1.3710   -9.5880   -5.5150 C.3   454  SER454      0.2130
    103  OG         0.3820  -10.2230   -6.3110 O.3   454  SER454     -0.2179
    104  N          2.3330   -7.1220   -7.1960 N.am  455  GLY455     -0.1954
    105  CA         2.5240   -6.5720   -8.5280 C.3   455  GLY455      0.1869
    106  C          2.5170   -7.6540   -9.5950 C.2   455  GLY455      0.2309
    107  O          3.4420   -7.7360  -10.4090 O.2   455  GLY455     -0.2863
@<TRIPOS>BOND
     1     1     2    1
     2    35    34    2
     3    28    27    1
     4    28    29    1
     5     2     5    1
     6     2     3    1
     7    27    24    1
     8    34    33    1
     9     5     6    1
    10    31    29   am
    11    29    30    2
    12    26    25    2
    13     7     6   ar
    14     7     9   ar
    15     3    15   am
    16     3     4    2
    17    25    24    1
    18    25    32   am
    19     6     8   ar
    20    24    23    1
    21    33    32    1
    22    33    36    1
    23    15    16    1
    24    23    17   am
    25    37    36    1
    26     9    10   ar
    27    36    38    1
    28    17    16    1
    29    17    18    2
    30     8    10   ar
    31     8    11   ar
    32    16    19    1
    33    10    12   ar
    34    11    13   ar
    35    19    20    1
    36    40    41    1
    37    40    39    1
    38    40    43    1
    39    41    42    2
    40    12    14   ar
    41    13    14   ar
    42   107   106    2
    43    20    21    2
    44    20    22   am
    45    44    43    1
    46   106   105    1
    47    45    46    1
    48    49    46    1
    49    49    50    1
    50    63    61   ar
    51    63    64   ar
    52    47    46    1
    53    47    48    2
    54    61    59   ar
    55    87    86    2
    56   105   104    1
    57    50    51    1
    58    79    78    2
    59    64    62   ar
    60    88    89    1
    61    88    85    1
    62    59    58    1
    63    59    60   ar
    64    76    77    1
    65    86    85    1
    66    58    55    1
    67    91    89   am
    68   101   100    2
    69   104   100   am
    70    78    77    1
    71    78    84   am
    72    51    53   am
    73    51    52    2
    74    89    90    2
    75    85    84    1
    76   100    99    1
    77    62    60   ar
    78    77    80    1
    79    56    55    1
    80    56    57    2
    81    55    54    1
    82    81    80    1
    83    81    83    1
    84   103   102    1
    85    80    82    1
    86   102    99    1
    87    99    98    1
    88    98    94   am
    89    94    93    1
    90    94    95    2
    91    96    93    1
    92    96    97    1
    93    65    66    1
    94    93    92    1
    95    67    66    1
    96    67    68    2
    97    69    66    1
    98    69    70    1
    99    70    71    1
   100    71    72    1
   101    74    73    1
   102    72    73    2
   103    73    75    1
