@<TRIPOS>MOLECULE
tmp/2vn9B00.pdb
 147 136 0 0 0
SMALL
GASTEIGER

@<TRIPOS>ATOM
      1  N        -11.5310   57.9480    2.7200 N.3    12  LEU12      -0.1231
      2  CA       -10.9990   56.9690    3.6570 C.3    12  LEU12       0.1693
      3  C        -10.8140   57.6560    5.0060 C.2    12  LEU12       0.2593
      4  O        -11.2170   57.1350    6.0480 O.2    12  LEU12      -0.2718
      5  CB        -9.6690   56.4230    3.1500 C.3    12  LEU12       0.0284
      6  CG        -9.7290   55.7690    1.7720 C.3    12  LEU12       0.0019
      7  CD1       -8.3570   55.3730    1.2740 C.3    12  LEU12       0.0001
      8  CD2      -10.6870   54.5570    1.8040 C.3    12  LEU12       0.0001
      9  N        -10.2100   58.8340    4.9750 N.am   13  GLY13      -0.1942
     10  CA       -10.0240   59.6370    6.1760 C.3    13  GLY13       0.2014
     11  C         -9.6510   61.0770    5.8480 C.2    13  GLY13       0.2638
     12  O         -9.8610   61.5430    4.7200 O.2    13  GLY13      -0.2714
     13  N         -9.0920   61.7730    6.8420 N.am   14  LYS14      -0.1977
     14  CA        -8.8300   63.2130    6.7510 C.3    14  LYS14       0.1596
     15  C         -7.5320   63.6070    7.4650 C.2    14  LYS14       0.2287
     16  O         -6.8650   62.7660    8.0780 O.2    14  LYS14      -0.2864
     17  CB       -10.0020   64.0010    7.3710 C.3    14  LYS14       0.0298
     18  CG       -11.0200   64.4480    6.3490 C.3    14  LYS14       0.0038
     19  CD       -12.1190   65.2820    6.9870 C.3    14  LYS14       0.0206
     20  CE       -11.5830   66.5620    7.6120 C.3    14  LYS14       0.1093
     21  NZ       -10.7140   67.3300    6.7030 N.3    14  LYS14      -0.1314
     22  N         -6.4200   68.1320    4.7420 N.3    18  SER18      -0.1217
     23  CA        -6.3360   67.1980    3.6310 C.3    18  SER18       0.1889
     24  C         -7.3020   66.0320    3.8310 C.2    18  SER18       0.2288
     25  O         -7.4830   65.5310    4.9470 O.2    18  SER18      -0.2866
     26  CB        -4.8970   66.6740    3.4400 C.3    18  SER18       0.2089
     27  OG        -4.6260   65.5140    4.2290 O.3    18  SER18      -0.2183
     28  N         -8.3150   62.1650    2.4180 N.3    20  VAL20      -0.1245
     29  CA        -7.7630   61.0030    1.7170 C.3    20  VAL20       0.1561
     30  C         -8.9300   60.2070    1.1130 C.2    20  VAL20       0.2260
     31  O         -9.8200   59.7710    1.8380 O.2    20  VAL20      -0.2867
     32  CB        -6.8820   60.1150    2.6430 C.3    20  VAL20       0.0252
     33  CG1       -6.3580   58.9060    1.8730 C.3    20  VAL20       0.0019
     34  CG2       -5.7250   60.9440    3.2380 C.3    20  VAL20       0.0019
     35  N         -4.5170   55.2700   -2.5300 N.3    33  ALA33      -0.1245
     36  CA        -5.0470   56.3000   -1.6320 C.3    33  ALA33       0.1562
     37  C         -4.5230   57.6670   -2.0610 C.2    33  ALA33       0.2260
     38  O         -3.3220   57.8850   -2.1250 O.2    33  ALA33      -0.2867
     39  CB        -4.6280   56.0080   -0.1590 C.3    33  ALA33       0.0290
     40  N         -4.2340   61.5570   -1.2850 N.3    35  LYS35      -0.1245
     41  CA        -4.2940   62.6740   -0.3440 C.3    35  LYS35       0.1561
     42  C         -4.5200   63.9180   -1.1840 C.2    35  LYS35       0.2260
     43  O         -3.7640   64.1850   -2.1120 O.2    35  LYS35      -0.2867
     44  CB        -2.9850   62.7470    0.4320 C.3    35  LYS35       0.0271
     45  CG        -2.9000   63.7580    1.5830 C.3    35  LYS35       0.0035
     46  CD        -1.5090   63.6460    2.2250 C.3    35  LYS35       0.0206
     47  CE        -1.3930   64.3000    3.6100 C.3    35  LYS35       0.1093
     48  NZ        -0.1410   63.8470    4.3540 N.3    35  LYS35      -0.1314
     49  N          4.7220   53.5830    3.5650 N.3    66  VAL66      -0.1245
     50  CA         3.6960   53.7630    2.5320 C.3    66  VAL66       0.1561
     51  C          4.2970   54.5640    1.3670 C.2    66  VAL66       0.2260
     52  O          4.6420   55.7040    1.5170 O.2    66  VAL66      -0.2867
     53  CB         2.4600   54.5160    3.0880 C.3    66  VAL66       0.0252
     54  CG1        1.4310   54.6960    1.9990 C.3    66  VAL66       0.0019
     55  CG2        1.8630   53.7900    4.3230 C.3    66  VAL66       0.0019
     56  N         -0.7640   57.5190   -3.0230 N.3    82  PHE82      -0.1227
     57  CA        -0.0150   56.5930   -2.1910 C.3    82  PHE82       0.1736
     58  C         -0.5430   55.1900   -2.4180 C.2    82  PHE82       0.2595
     59  O         -1.6890   55.0160   -2.8350 O.2    82  PHE82      -0.2718
     60  CB        -0.2140   56.9460   -0.6980 C.3    82  PHE82       0.0547
     61  CG         0.5180   58.1980   -0.2420 C.ar   82  PHE82      -0.0202
     62  CD1       -0.1610   59.4040   -0.0440 C.ar   82  PHE82      -0.0042
     63  CD2        1.8680   58.1460    0.0650 C.ar   82  PHE82      -0.0042
     64  CE1        0.5330   60.5590    0.4430 C.ar   82  PHE82      -0.0003
     65  CE2        2.5530   59.2830    0.5410 C.ar   82  PHE82      -0.0003
     66  CZ         1.8720   60.4890    0.7170 C.ar   82  PHE82      -0.0000
     67  N          0.2860   54.1980   -2.0950 N.am   83  ASP83      -0.1960
     68  CA        -0.1780   52.8500   -1.8350 C.3    83  ASP83       0.1840
     69  C         -1.3380   52.8390   -0.8240 C.2    83  ASP83       0.2622
     70  O         -1.3070   53.5270    0.2130 O.2    83  ASP83      -0.2715
     71  CB         0.9520   51.9490   -1.2780 C.3    83  ASP83       0.1450
     72  CG         1.7810   51.2580   -2.3760 C.2    83  ASP83       0.3671
     73  OD1        1.3670   51.2230   -3.5640 O.co2  83  ASP83      -0.2456
     74  OD2        2.8570   50.7150   -2.0450 O.co2  83  ASP83      -0.2456
     75  N         -2.3490   52.0360   -1.1470 N.am   84  LEU84      -0.1963
     76  CA        -3.4960   51.8260   -0.2900 C.3    84  LEU84       0.1728
     77  C         -3.1310   50.7560    0.7220 C.2    84  LEU84       0.2616
     78  O         -2.5620   49.7270    0.3750 O.2    84  LEU84      -0.2715
     79  CB        -4.7220   51.4060   -1.1150 C.3    84  LEU84       0.0311
     80  CG        -5.9960   51.1280   -0.3190 C.3    84  LEU84       0.0022
     81  CD1       -6.5660   52.4010    0.3100 C.3    84  LEU84       0.0001
     82  CD2       -7.0140   50.3960   -1.2040 C.3    84  LEU84       0.0001
     83  N         -3.4230   51.0400    1.9880 N.am   85  VAL85      -0.1963
     84  CA        -3.2140   50.1320    3.1100 C.3    85  VAL85       0.1727
     85  C         -4.6000   49.9540    3.7410 C.2    85  VAL85       0.2616
     86  O         -5.3430   50.9170    3.9070 O.2    85  VAL85      -0.2715
     87  CB        -2.1180   50.6700    4.1250 C.3    85  VAL85       0.0290
     88  CG1       -0.7370   50.7560    3.4600 C.3    85  VAL85       0.0023
     89  CG2       -2.5030   52.0040    4.7460 C.3    85  VAL85       0.0023
     90  N         -4.9860   48.7170    4.0180 N.am   86  THR86      -0.1951
     91  CA        -6.3500   48.4250    4.4980 C.3    86  THR86       0.1897
     92  C         -6.3870   47.8020    5.8930 C.2    86  THR86       0.2313
     93  O         -7.4390   47.3870    6.3570 O.2    86  THR86      -0.2863
     94  CB        -7.0830   47.4650    3.5530 C.3    86  THR86       0.1794
     95  OG1       -6.3700   46.2180    3.5130 O.3    86  THR86      -0.2208
     96  CG2       -7.2280   48.0820    2.1380 C.3    86  THR86       0.0378
     97  N         -5.5170   49.2370    8.7880 N.3    88  GLY88      -0.1225
     98  CA        -5.7640   50.1820    9.8530 C.3    88  GLY88       0.1811
     99  C         -4.5500   50.3740   10.7480 C.2    88  GLY88       0.2280
    100  O         -3.4330   49.9520   10.4460 O.2    88  GLY88      -0.2866
    101  N         -0.7270   56.7110   15.2330 N.3   132  GLU132     -0.1231
    102  CA        -1.5060   57.1880   14.0960 C.3   132  GLU132      0.1699
    103  C         -0.7710   57.0280   12.7600 C.2   132  GLU132      0.2592
    104  O         -1.3900   56.9970   11.7260 O.2   132  GLU132     -0.2718
    105  CB        -1.8930   58.6610   14.2660 C.3   132  GLU132      0.0402
    106  CG        -3.0700   58.8950   15.2180 C.3   132  GLU132      0.1161
    107  CD        -2.6500   58.8460   16.6760 C.2   132  GLU132      0.3649
    108  OE1       -1.4190   58.8140   16.9270 O.co2 132  GLU132     -0.2457
    109  OE2       -3.5430   58.8350   17.5620 O.co2 132  GLU132     -0.2457
    110  N          0.5460   56.9020   12.8010 N.am  133  ASN133     -0.1974
    111  CA         1.3610   56.8820   11.5930 C.3   133  ASN133      0.1688
    112  C          1.9430   55.5220   11.3200 C.2   133  ASN133      0.2292
    113  O          2.8050   55.3680   10.4770 O.2   133  ASN133     -0.2864
    114  CB         2.4430   57.9370   11.7320 C.3   133  ASN133      0.1181
    115  CG         1.8620   59.3450   11.7760 C.2   133  ASN133      0.2629
    116  OD1        0.7720   59.5740   11.2530 O.2   133  ASN133     -0.2716
    117  ND2        2.5830   60.2920   12.4030 N.am  133  ASN133     -0.0877
    118  N          0.6120   51.9730   10.2130 N.3   135  LEU135     -0.1245
    119  CA        -0.5490   51.3400    9.6340 C.3   135  LEU135      0.1561
    120  C         -0.1750   49.9640    9.1250 C.2   135  LEU135      0.2260
    121  O          0.9700   49.7360    8.7120 O.2   135  LEU135     -0.2867
    122  CB        -1.0860   52.1920    8.4980 C.3   135  LEU135      0.0270
    123  CG        -1.1730   53.6800    8.8080 C.3   135  LEU135      0.0019
    124  CD1       -1.5410   54.5020    7.5310 C.3   135  LEU135      0.0001
    125  CD2       -2.1790   53.9180    9.9170 C.3   135  LEU135      0.0001
    126  N         -5.2660   43.5390    6.0770 N.3   139  LYS139     -0.1245
    127  CA        -5.9090   42.9350    7.2380 C.3   139  LYS139      0.1561
    128  C         -5.2930   41.5890    7.5770 C.2   139  LYS139      0.2260
    129  O         -5.7120   40.9430    8.5080 O.2   139  LYS139     -0.2867
    130  CB        -7.4000   42.7510    6.9840 C.3   139  LYS139      0.0271
    131  CG        -8.1950   44.0240    6.8490 C.3   139  LYS139      0.0035
    132  CD        -9.6040   43.6890    6.4420 C.3   139  LYS139      0.0206
    133  CE       -10.5900   44.7670    6.7880 C.3   139  LYS139      0.1093
    134  NZ       -10.0830   46.0250    6.2980 N.3   139  LYS139     -0.1314
    135  N          3.6830   56.0750    7.8220 N.3   148  ALA148     -0.1231
    136  CA         2.9420   57.0510    7.0480 C.3   148  ALA148      0.1694
    137  C          3.0930   58.4790    7.5860 C.2   148  ALA148      0.2592
    138  O          3.6200   58.7400    8.6810 O.2   148  ALA148     -0.2718
    139  CB         1.4720   56.6820    7.0030 C.3   148  ALA148      0.0304
    140  N          2.5570   59.3770    6.7790 N.am  149  ASP149     -0.1974
    141  CA         2.4510   60.7890    7.0370 C.3   149  ASP149      0.1709
    142  C          3.7660   61.4830    7.3080 C.2   149  ASP149      0.2293
    143  O          4.2360   61.5790    8.4540 O.2   149  ASP149     -0.2864
    144  CB         1.4210   61.0610    8.1440 C.3   149  ASP149      0.1436
    145  CG         0.9290   62.5000    8.1180 C.2   149  ASP149      0.3671
    146  OD1        1.6400   63.3550    7.5170 O.co2 149  ASP149     -0.2456
    147  OD2       -0.1710   62.7410    8.6650 O.co2 149  ASP149     -0.2456
@<TRIPOS>BOND
     1    73    72   ar
     2    56    57    1
     3    59    58    2
     4    35    36    1
     5    58    57    1
     6    58    67   am
     7    72    74   ar
     8    72    71    1
     9    57    60    1
    10    38    37    2
    11    43    42    2
    12    67    68    1
    13    37    36    1
    14    68    71    1
    15    68    69    1
    16    36    39    1
    17    40    41    1
    18    82    80    1
    19    42    41    1
    20    75    69   am
    21    75    76    1
    22    79    80    1
    23    79    76    1
    24    69    70    2
    25    60    61    1
    26    41    44    1
    27    80    81    1
    28    76    77    1
    29    61    62   ar
    30    61    63   ar
    31    62    64   ar
    32    63    65   ar
    33    78    77    2
    34    44    45    1
    35    64    66   ar
    36    65    66   ar
    37    77    83   am
    38    30    29    1
    39    30    31    2
    40     7     6    1
    41    51    52    2
    42    51    50    1
    43    45    46    1
    44    29    28    1
    45    29    32    1
    46     6     8    1
    47     6     5    1
    48    33    32    1
    49    83    84    1
    50    54    53    1
    51    96    94    1
    52    46    47    1
    53    50    53    1
    54    50    49    1
    55    32    34    1
    56     1     2    1
    57    53    55    1
    58    84    85    1
    59    84    87    1
    60     5     2    1
    61    26    23    1
    62    26    27    1
    63    88    87    1
    64    95    94    1
    65    94    91    1
    66    47    48    1
    67    23    24    1
    68    23    22    1
    69     2     3    1
    70    85    86    2
    71    85    90   am
    72    24    25    2
    73    90    91    1
    74    87    89    1
    75    91    92    1
    76    12    11    2
    77     9     3   am
    78     9    10    1
    79     3     4    2
    80    11    10    1
    81    11    13   am
    82    92    93    2
    83   126   127    1
    84   134   133    1
    85    18    19    1
    86    18    17    1
    87   132   133    1
    88   132   131    1
    89    21    20    1
    90    14    13    1
    91    14    17    1
    92    14    15    1
    93   140   141    1
    94   140   137   am
    95   131   130    1
    96   130   127    1
    97    19    20    1
    98   139   136    1
    99   141   142    1
   100   141   144    1
   101   136   137    1
   102   136   135    1
   103   127   128    1
   104   142   143    2
   105    15    16    2
   106   146   145   ar
   107   124   123    1
   108   128   129    2
   109   137   138    2
   110   145   144    1
   111   145   147   ar
   112   122   123    1
   113   122   119    1
   114   121   120    2
   115    97    98    1
   116   123   125    1
   117   120   119    1
   118   119   118    1
   119    98    99    1
   120   100    99    2
   121   113   112    2
   122   116   115    2
   123   112   111    1
   124   111   114    1
   125   111   110    1
   126   104   103    2
   127   114   115    1
   128   115   117   am
   129   103   110   am
   130   103   102    1
   131   102   105    1
   132   102   101    1
   133   105   106    1
   134   106   107    1
   135   107   108   ar
   136   107   109   ar
