@<TRIPOS>MOLECULE
tmp/2vnfC00.pdb
 156 158 0 0 0
SMALL
GASTEIGER

@<TRIPOS>ATOM
      1  N         23.5060  -18.6180    8.4290 N.3     8  TYR8       -0.1241
      2  CA        23.3630  -19.8290    7.6050 C.3     8  TYR8        0.1605
      3  C         24.7580  -20.2440    7.1130 C.2     8  TYR8        0.2264
      4  O         25.7310  -19.5520    7.3870 O.2     8  TYR8       -0.2867
      5  CB        22.5220  -19.5070    6.3780 C.3     8  TYR8        0.0534
      6  CG        21.1110  -19.1120    6.6820 C.ar    8  TYR8       -0.0201
      7  CD1       20.7620  -17.7720    6.8390 C.ar    8  TYR8       -0.0009
      8  CD2       20.1250  -20.0790    6.8420 C.ar    8  TYR8       -0.0009
      9  CE1       19.4650  -17.3980    7.1140 C.ar    8  TYR8        0.0417
     10  CE2       18.8200  -19.7160    7.1530 C.ar    8  TYR8        0.0417
     11  CZ        18.5030  -18.3670    7.2710 C.ar    8  TYR8        0.1957
     12  OH        17.2270  -17.9770    7.5740 O.3     8  TYR8       -0.2866
     13  N         22.1280  -14.0710    5.4060 N.3    15  SER15      -0.1202
     14  CA        21.8810  -14.2520    3.9670 C.3    15  SER15       0.2020
     15  C         22.3870  -13.0830    3.1400 C.2    15  SER15       0.2619
     16  O         22.1930  -11.9170    3.5080 O.2    15  SER15      -0.2717
     17  CB        20.3930  -14.4550    3.6500 C.3    15  SER15       0.2103
     18  OG        19.8650  -15.4490    4.4890 O.3    15  SER15      -0.2182
     19  N         22.9820  -13.4010    1.9990 N.am   16  TYR16      -0.1961
     20  CA        23.2640  -12.4060    0.9700 C.3    16  TYR16       0.1771
     21  C         23.4350  -13.1010   -0.3710 C.2    16  TYR16       0.2620
     22  O         23.7300  -14.2920   -0.4320 O.2    16  TYR16      -0.2715
     23  CB        24.5150  -11.5840    1.3150 C.3    16  TYR16       0.0574
     24  CG        25.8030  -12.3880    1.4240 C.ar   16  TYR16      -0.0198
     25  CD1       26.5460  -12.7050    0.2910 C.ar   16  TYR16      -0.0009
     26  CD2       26.2790  -12.8030    2.6720 C.ar   16  TYR16      -0.0009
     27  CE1       27.7430  -13.4410    0.3910 C.ar   16  TYR16       0.0417
     28  CE2       27.4500  -13.5300    2.7900 C.ar   16  TYR16       0.0417
     29  CZ        28.1780  -13.8460    1.6390 C.ar   16  TYR16       0.1957
     30  OH        29.3440  -14.5780    1.7430 O.3    16  TYR16      -0.2866
     31  N         23.2000  -12.3660   -1.4460 N.am   17  GLY17      -0.1940
     32  CA        23.3980  -12.9080   -2.7860 C.3    17  GLY17       0.2014
     33  C         22.5410  -14.1310   -3.0520 C.2    17  GLY17       0.2639
     34  O         21.4840  -14.3250   -2.4350 O.2    17  GLY17      -0.2714
     35  N         22.9920  -14.9650   -3.9760 N.am   18  GLU18      -0.1963
     36  CA        22.2780  -16.2090   -4.2840 C.3    18  GLU18       0.1733
     37  C         22.6700  -17.3050   -3.2910 C.2    18  GLU18       0.2616
     38  O         23.8510  -17.4700   -2.9390 O.2    18  GLU18      -0.2715
     39  CB        22.6610  -16.6990   -5.6780 C.3    18  GLU18       0.0429
     40  CG        22.2910  -15.7210   -6.7770 C.3    18  GLU18       0.1163
     41  CD        22.3800  -16.3820   -8.1240 C.2    18  GLU18       0.3649
     42  OE1       21.3600  -16.9990   -8.5130 O.co2  18  GLU18      -0.2457
     43  OE2       23.4690  -16.2930   -8.7550 O.co2  18  GLU18      -0.2457
     44  N         21.6790  -18.0880   -2.8860 N.am   19  MET19      -0.1963
     45  CA        21.9370  -19.1370   -1.9190 C.3    19  MET19       0.1736
     46  C         21.2410  -20.4210   -2.3590 C.2    19  MET19       0.2616
     47  O         20.2510  -20.3580   -3.0850 O.2    19  MET19      -0.2715
     48  CB        21.4740  -18.7090   -0.5370 C.3    19  MET19       0.0427
     49  CG        22.2910  -17.4980    0.0300 C.3    19  MET19       0.0599
     50  SD        21.7110  -17.0560    1.6890 S.3    19  MET19      -0.1393
     51  CE        22.5180  -18.2640    2.7170 C.3    19  MET19       0.0692
     52  N         21.7800  -21.5650   -1.9350 N.am   20  ILE20      -0.1963
     53  CA        21.3010  -22.8480   -2.4340 C.3    20  ILE20       0.1727
     54  C         20.9660  -23.7300   -1.2700 C.2    20  ILE20       0.2617
     55  O         21.6860  -23.6770   -0.2630 O.2    20  ILE20      -0.2715
     56  CB        22.3300  -23.5310   -3.3740 C.3    20  ILE20       0.0290
     57  CG1       21.7300  -24.7690   -4.0690 C.3    20  ILE20       0.0022
     58  CG2       23.6600  -23.8700   -2.6790 C.3    20  ILE20       0.0023
     59  CD1       22.5370  -25.1750   -5.3330 C.3    20  ILE20       0.0001
     60  N         19.8980  -24.5270   -1.3900 N.am   21  GLY21      -0.1940
     61  CA        19.5490  -25.4880   -0.3390 C.3    21  GLY21       0.2014
     62  C         19.9990  -26.9060   -0.6540 C.2    21  GLY21       0.2639
     63  O         19.8650  -27.3950   -1.7810 O.2    21  GLY21      -0.2714
     64  N         20.5110  -27.6010    0.3520 N.am   22  CYS22      -0.1953
     65  CA        20.9860  -28.9680    0.1470 C.3    22  CYS22       0.1843
     66  C         19.8300  -29.9420   -0.1350 C.2    22  CYS22       0.2625
     67  O         18.7880  -29.8620    0.5070 O.2    22  CYS22      -0.2714
     68  CB        21.8320  -29.3830    1.3550 C.3    22  CYS22       0.0997
     69  SG        22.5650  -31.0210    1.1660 S.3    22  CYS22      -0.0797
     70  N         19.9800  -30.8700   -1.0870 N.am   23  ASP23      -0.1971
     71  CA        18.8630  -31.7730   -1.3650 C.3    23  ASP23       0.1709
     72  C         18.8030  -33.0230   -0.4680 C.2    23  ASP23       0.2293
     73  O         17.9470  -33.8860   -0.6550 O.2    23  ASP23      -0.2864
     74  CB        18.8340  -32.1830   -2.8320 C.3    23  ASP23       0.1436
     75  CG        18.2040  -31.1350   -3.6980 C.2    23  ASP23       0.3671
     76  OD1       18.7540  -30.8910   -4.7790 O.co2  23  ASP23      -0.2456
     77  OD2       17.1680  -30.5620   -3.3050 O.co2  23  ASP23      -0.2456
     78  N         21.6700  -26.8520    5.6790 N.3    30  GLU30      -0.1231
     79  CA        20.6060  -26.5990    4.7080 C.3    30  GLU30       0.1699
     80  C         20.8400  -25.5240    3.6400 C.2    30  GLU30       0.2592
     81  O         20.6850  -25.8120    2.4450 O.2    30  GLU30      -0.2718
     82  CB        19.2220  -26.3810    5.3570 C.3    30  GLU30       0.0402
     83  CG        18.1420  -26.6080    4.3100 C.3    30  GLU30       0.1161
     84  CD        16.7370  -26.4550    4.8480 C.2    30  GLU30       0.3649
     85  OE1       16.5770  -26.2510    6.0780 O.co2  30  GLU30      -0.2457
     86  OE2       15.8070  -26.5500    4.0150 O.co2  30  GLU30      -0.2457
     87  N         21.1650  -24.3000    4.0580 N.am   31  TRP31      -0.1976
     88  CA        21.3060  -23.1940    3.1120 C.3    31  TRP31       0.1640
     89  C         22.7340  -22.6740    3.0780 C.2    31  TRP31       0.2290
     90  O         23.3550  -22.5030    4.1470 O.2    31  TRP31      -0.2864
     91  CB        20.3710  -22.0300    3.4840 C.3    31  TRP31       0.0576
     92  CG        18.9250  -22.3500    3.1740 C.ar   31  TRP31       0.0006
     93  CD1       17.9650  -22.8140    4.0420 C.ar   31  TRP31       0.0946
     94  CD2       18.2970  -22.2590    1.8920 C.ar   31  TRP31       0.0152
     95  NE1       16.7850  -23.0040    3.3760 N.ar   31  TRP31      -0.2442
     96  CE2       16.9560  -22.6790    2.0540 C.ar   31  TRP31       0.0810
     97  CE3       18.7360  -21.8660    0.6260 C.ar   31  TRP31       0.0012
     98  CZ2       16.0500  -22.7070    1.0020 C.ar   31  TRP31       0.0191
     99  CZ3       17.8350  -21.9000   -0.4270 C.ar   31  TRP31       0.0001
    100  CH2       16.4980  -22.3260   -0.2300 C.ar   31  TRP31       0.0015
    101  N         26.3370  -19.1740   -2.4940 N.3    34  PHE34      -0.1241
    102  CA        26.9260  -19.8230   -3.6630 C.3    34  PHE34       0.1605
    103  C         28.4380  -19.8590   -3.5400 C.2    34  PHE34       0.2264
    104  O         29.0500  -20.8900   -3.8050 O.2    34  PHE34      -0.2867
    105  CB        26.5960  -19.0370   -4.9220 C.3    34  PHE34       0.0534
    106  CG        25.3250  -19.4560   -5.6230 C.ar   34  PHE34      -0.0203
    107  CD1       25.1800  -19.1790   -6.9910 C.ar   34  PHE34      -0.0042
    108  CD2       24.2860  -20.1250   -4.9610 C.ar   34  PHE34      -0.0042
    109  CE1       24.0150  -19.5190   -7.6800 C.ar   34  PHE34      -0.0003
    110  CE2       23.1150  -20.4790   -5.6630 C.ar   34  PHE34      -0.0003
    111  CZ        22.9770  -20.1830   -7.0130 C.ar   34  PHE34      -0.0000
    112  N         23.5320  -21.2220  -10.8380 N.3    42  LYS42      -0.1231
    113  CA        22.6150  -22.2220  -10.2740 C.3    42  LYS42       0.1678
    114  C         22.7680  -23.5420  -11.0210 C.2    42  LYS42       0.2434
    115  O         22.6540  -23.5620  -12.2420 O.2    42  LYS42      -0.2733
    116  CB        21.1760  -21.7110  -10.4270 C.3    42  LYS42       0.0284
    117  CG        20.0790  -22.7070  -10.0820 C.3    42  LYS42       0.0035
    118  CD        18.7560  -22.0180   -9.7610 C.3    42  LYS42       0.0206
    119  CE        17.6430  -23.0530   -9.5010 C.3    42  LYS42       0.1093
    120  NZ        16.4810  -22.5200   -8.7050 N.3    42  LYS42      -0.1314
    121  N         23.0490  -24.6510  -10.3130 N.am   43  PRO43      -0.2718
    122  CA        23.0440  -25.9630  -10.9700 C.3    43  PRO43       0.1535
    123  C         21.6460  -26.3090  -11.4840 C.2    43  PRO43       0.2598
    124  O         20.6750  -25.9630  -10.8450 O.2    43  PRO43      -0.2715
    125  CB        23.4120  -26.9230   -9.8290 C.3    43  PRO43       0.0310
    126  CG        24.1190  -26.0590   -8.8200 C.3    43  PRO43       0.0237
    127  CD        23.3960  -24.7540   -8.8860 C.3    43  PRO43       0.0939
    128  N         21.5220  -26.9670  -12.6320 N.am   44  ARG44      -0.1964
    129  CA        20.2730  -27.6700  -12.9400 C.3    44  ARG44       0.1729
    130  C         20.2160  -28.9820  -12.1430 C.2    44  ARG44       0.2616
    131  O         21.2410  -29.5940  -11.8670 O.2    44  ARG44      -0.2715
    132  CB        20.1570  -27.9490  -14.4450 C.3    44  ARG44       0.0348
    133  CG        20.0660  -26.5840  -15.1950 C.3    44  ARG44       0.0492
    134  CD        18.6090  -26.2360  -15.2880 C.3    44  ARG44       0.2205
    135  NE        18.2520  -24.9130  -15.7130 N.pl3  44  ARG44      -0.0865
    136  CZ        18.6070  -23.7090  -15.2470 C.cat  44  ARG44       0.5346
    137  NH1       19.3030  -23.5710  -14.1020 N.pl3  44  ARG44       0.1354
    138  NH2       18.2570  -22.6310  -15.9890 N.pl3  44  ARG44       0.1354
    139  N         19.0250  -29.4150  -11.7590 N.am   45  GLY45      -0.1955
    140  CA        18.9100  -30.6720  -11.0240 C.3    45  GLY45       0.1869
    141  C         19.4640  -30.6100   -9.6110 C.2    45  GLY45       0.2309
    142  O         19.7100  -29.5320   -9.0780 O.2    45  GLY45      -0.2863
    143  N         21.3540  -30.9340   -5.9830 N.3    47  TRP47      -0.1241
    144  CA        22.6370  -30.4810   -5.4690 C.3    47  TRP47       0.1605
    145  C         22.7380  -30.8950   -4.0040 C.2    47  TRP47       0.2264
    146  O         21.7530  -30.7770   -3.2630 O.2    47  TRP47      -0.2867
    147  CB        22.7710  -28.9480   -5.6370 C.3    47  TRP47       0.0550
    148  CG        24.0320  -28.3820   -5.0090 C.ar   47  TRP47       0.0003
    149  CD1       25.2450  -28.2170   -5.6100 C.ar   47  TRP47       0.0946
    150  CD2       24.1960  -27.9420   -3.6540 C.ar   47  TRP47       0.0152
    151  NE1       26.1460  -27.7100   -4.7160 N.ar   47  TRP47      -0.2442
    152  CE2       25.5280  -27.5190   -3.5100 C.ar   47  TRP47       0.0810
    153  CE3       23.3320  -27.8230   -2.5620 C.ar   47  TRP47       0.0012
    154  CZ2       26.0310  -27.0130   -2.3040 C.ar   47  TRP47       0.0191
    155  CZ3       23.8220  -27.3300   -1.3700 C.ar   47  TRP47       0.0001
    156  CH2       25.1620  -26.9180   -1.2480 C.ar   47  TRP47       0.0015
@<TRIPOS>BOND
     1   138   136    1
     2   135   134    1
     3   135   136    2
     4   134   133    1
     5   136   137    1
     6   133   132    1
     7   132   129    1
     8   129   128    1
     9   129   130    1
    10   128   123   am
    11   115   114    2
    12   130   131    2
    13   130   139   am
    14   139   140    1
    15   123   122    1
    16   123   124    2
    17   140   141    1
    18   114   121   am
    19   114   113    1
    20   122   121    1
    21   122   125    1
    22   112   113    1
    23   116   113    1
    24   116   117    1
    25   121   127    1
    26   117   118    1
    27   125   126    1
    28   118   119    1
    29   141   142    2
    30   119   120    1
    31   127   126    1
    32    43    41   ar
    33    42    41   ar
    34    41    40    1
    35   109   111   ar
    36   109   107   ar
    37   111   110   ar
    38   107   106   ar
    39    40    39    1
    40   143   144    1
    41    39    36    1
    42   110   108   ar
    43   147   144    1
    44   147   148    1
    45   106   108   ar
    46   106   105    1
    47   149   148   ar
    48   149   151   ar
    49   144   145    1
    50    59    57    1
    51   148   150   ar
    52   105   102    1
    53    76    75   ar
    54   151   152   ar
    55    36    35    1
    56    36    37    1
    57    57    56    1
    58   145   146    2
    59    35    33   am
    60   104   103    2
    61    75    77   ar
    62    75    74    1
    63   102   103    1
    64   102   101    1
    65   150   152   ar
    66   150   153   ar
    67   152   154   ar
    68    56    58    1
    69    56    53    1
    70    37    38    2
    71    37    44   am
    72    47    46    2
    73    33    32    1
    74    33    34    2
    75    44    45    1
    76    74    71    1
    77    32    31    1
    78   153   155   ar
    79    53    52    1
    80    53    54    1
    81    46    52   am
    82    46    45    1
    83   154   156   ar
    84    45    48    1
    85    63    62    2
    86    31    21   am
    87    60    54   am
    88    60    61    1
    89   155   156   ar
    90    71    70    1
    91    71    72    1
    92    54    55    2
    93    70    66   am
    94    73    72    2
    95    62    61    1
    96    62    64   am
    97    48    49    1
    98    22    21    2
    99    99   100   ar
   100    99    97   ar
   101    21    20    1
   102   100    98   ar
   103    66    65    1
   104    66    67    2
   105    49    50    1
   106    65    64    1
   107    65    68    1
   108    25    27   ar
   109    25    24   ar
   110    27    29   ar
   111    97    94   ar
   112    20    23    1
   113    20    19    1
   114    98    96   ar
   115    69    68    1
   116    23    24    1
   117    24    26   ar
   118    29    30    1
   119    29    28   ar
   120    50    51    1
   121    94    96   ar
   122    94    92   ar
   123    19    15   am
   124    96    95   ar
   125    81    80    2
   126    26    28   ar
   127    89    88    1
   128    89    90    2
   129    88    91    1
   130    88    87    1
   131    15    16    2
   132    15    14    1
   133    92    91    1
   134    92    93   ar
   135    95    93   ar
   136    80    87   am
   137    80    79    1
   138    17    14    1
   139    17    18    1
   140    14    13    1
   141    86    84   ar
   142    83    84    1
   143    83    82    1
   144    79    82    1
   145    79    78    1
   146    84    85   ar
   147     5     6    1
   148     5     2    1
   149     6     7   ar
   150     6     8   ar
   151     7     9   ar
   152     8    10   ar
   153     3     4    2
   154     3     2    1
   155     9    11   ar
   156    10    11   ar
   157    11    12    1
   158     2     1    1
