@<TRIPOS>MOLECULE
tmp/2vngA00.pdb
 113 107 0 0 0
SMALL
GASTEIGER

@<TRIPOS>ATOM
      1  N         11.1330    4.0740    3.1850 N.3    17  GLY17      -0.1210
      2  CA        10.3720    3.6600    1.9730 C.3    17  GLY17       0.1956
      3  C         11.0610    3.9530    0.6360 C.2    17  GLY17       0.2612
      4  O         10.4290    3.8600   -0.4350 O.2    17  GLY17      -0.2717
      5  N         12.3540    4.3130    0.6410 N.am   18  ASP18      -0.1959
      6  CA        13.0350    4.6030   -0.6400 C.3    18  ASP18       0.1840
      7  C         13.3080    3.2380   -1.3490 C.2    18  ASP18       0.2622
      8  O         13.6030    2.2400   -0.6500 O.2    18  ASP18      -0.2715
      9  CB        14.3300    5.3810   -0.3820 C.3    18  ASP18       0.1450
     10  CG        14.9210    6.0310   -1.6680 C.2    18  ASP18       0.3671
     11  OD1       14.7630    7.2820   -1.8690 O.co2  18  ASP18      -0.2456
     12  OD2       15.5010    5.2490   -2.4950 O.co2  18  ASP18      -0.2456
     13  N         13.2430    3.2320   -2.6850 N.am   19  ASP19      -0.1957
     14  CA        13.4850    1.9880   -3.4620 C.3    19  ASP19       0.1840
     15  C         14.9290    1.4660   -3.2970 C.2    19  ASP19       0.2622
     16  O         15.1690    0.2560   -3.3420 O.2    19  ASP19      -0.2715
     17  CB        13.2050    2.2060   -4.9540 C.3    19  ASP19       0.1450
     18  CG        11.7660    2.6460   -5.2330 C.2    19  ASP19       0.3671
     19  OD1       10.7960    2.1040   -4.6050 O.co2  19  ASP19      -0.2456
     20  OD2       11.6110    3.5550   -6.1120 O.co2  19  ASP19      -0.2456
     21  N         15.8610    2.3850   -3.1360 N.am   20  THR20      -0.1951
     22  CA        17.2840    1.9850   -3.1310 C.3    20  THR20       0.1897
     23  C         17.6180    1.6600   -1.6610 C.2    20  THR20       0.2313
     24  O         17.7230    2.5570   -0.8380 O.2    20  THR20      -0.2863
     25  CB        18.1650    3.0950   -3.6990 C.3    20  THR20       0.1794
     26  OG1       17.7110    3.4640   -4.9990 O.3    20  THR20      -0.2208
     27  CG2       19.5740    2.6020   -3.8840 C.3    20  THR20       0.0378
     28  N         20.5600    3.1550    0.2410 N.3    23  LYS23      -0.1245
     29  CA        20.4370    4.4120    0.9750 C.3    23  LYS23       0.1561
     30  C         19.9900    4.1110    2.4300 C.2    23  LYS23       0.2260
     31  O         19.3680    3.0810    2.7030 O.2    23  LYS23      -0.2867
     32  CB        19.4120    5.2830    0.2740 C.3    23  LYS23       0.0271
     33  CG        19.9190    5.7940   -1.0620 C.3    23  LYS23       0.0035
     34  CD        18.9510    6.6870   -1.8030 C.3    23  LYS23       0.0206
     35  CE        19.4800    7.1500   -3.1480 C.3    23  LYS23       0.1093
     36  NZ        18.5900    8.2020   -3.8600 N.3    23  LYS23      -0.1314
     37  N         17.2750   12.4550    1.2690 N.3    32  THR32      -0.1218
     38  CA        17.8280   12.4450   -0.0810 C.3    32  THR32       0.1862
     39  C         19.1730   13.1810   -0.1610 C.2    32  THR32       0.2287
     40  O         20.1600   12.6330   -0.6270 O.2    32  THR32      -0.2866
     41  CB        16.8100   12.8350   -1.1710 C.3    32  THR32       0.1770
     42  OG1       15.7990   11.8210   -1.2070 O.3    32  THR32      -0.2211
     43  CG2       17.4320   13.0170   -2.5790 C.3    32  THR32       0.0375
     44  N         12.4250    8.3740    4.6770 N.3    61  ILE61      -0.1245
     45  CA        11.3760    8.4000    3.6520 C.3    61  ILE61       0.1561
     46  C         10.2720    7.5750    4.2240 C.2    61  ILE61       0.2260
     47  O         10.5080    6.4770    4.6910 O.2    61  ILE61      -0.2867
     48  CB        11.7500    7.7600    2.3290 C.3    61  ILE61       0.0252
     49  CG1       12.9340    8.5100    1.6860 C.3    61  ILE61       0.0019
     50  CG2       10.5750    7.7210    1.4070 C.3    61  ILE61       0.0019
     51  CD1       12.6490    9.9550    1.2610 C.3    61  ILE61       0.0001
     52  N         10.3320   17.8550   -3.0780 N.3    91  ASN91      -0.1240
     53  CA         9.8960   18.4860   -4.2950 C.3    91  ASN91       0.1653
     54  C          8.3800   18.1460   -4.5300 C.2    91  ASN91       0.2266
     55  O          8.0270   17.0000   -4.8550 O.2    91  ASN91      -0.2867
     56  CB        10.6990   17.9710   -5.5030 C.3    91  ASN91       0.1155
     57  CG        12.2020   18.3640   -5.4820 C.2    91  ASN91       0.2627
     58  OD1       12.6200   19.3830   -4.9220 O.2    91  ASN91      -0.2716
     59  ND2       13.0370   17.5270   -6.1430 N.am   91  ASN91      -0.0877
     60  N          6.0380   18.0340   -6.6550 N.3    93  ILE93      -0.1245
     61  CA         5.7910   18.2500   -8.1080 C.3    93  ILE93       0.1561
     62  C          4.3430   18.0890   -8.5220 C.2    93  ILE93       0.2260
     63  O          3.8970   18.6720   -9.5490 O.2    93  ILE93      -0.2867
     64  CB         6.7010   17.3850   -9.0030 C.3    93  ILE93       0.0252
     65  CG1        6.2860   15.9550   -8.9150 C.3    93  ILE93       0.0019
     66  CG2        8.1630   17.6110   -8.6680 C.3    93  ILE93       0.0019
     67  CD1        6.9620   15.0820  -10.0010 C.3    93  ILE93       0.0001
     68  N          2.8920   13.7420   -4.5520 N.3    97  TYR97      -0.1241
     69  CA         4.1760   13.8690   -3.8400 C.3    97  TYR97       0.1605
     70  C          4.0100   14.5290   -2.4590 C.2    97  TYR97       0.2264
     71  O          3.1650   15.3950   -2.2270 O.2    97  TYR97      -0.2867
     72  CB         5.1610   14.6890   -4.6420 C.3    97  TYR97       0.0534
     73  CG         5.9030   13.9530   -5.7390 C.ar   97  TYR97      -0.0201
     74  CD1        7.2870   13.8120   -5.6940 C.ar   97  TYR97      -0.0009
     75  CD2        5.2230   13.4110   -6.8300 C.ar   97  TYR97      -0.0009
     76  CE1        7.9830   13.1500   -6.7050 C.ar   97  TYR97       0.0417
     77  CE2        5.9180   12.7630   -7.8690 C.ar   97  TYR97       0.0417
     78  CZ         7.2900   12.6330   -7.8030 C.ar   97  TYR97       0.1957
     79  OH         8.0160   11.9660   -8.8120 O.3    97  TYR97      -0.2866
     80  N          5.4670    6.6070   -1.9350 N.3   153  THR153     -0.1203
     81  CA         6.4840    7.1760   -1.0590 C.3   153  THR153      0.1994
     82  C          7.1010    8.4490   -1.6660 C.2   153  THR153      0.2618
     83  O          7.9460    9.0880   -1.0160 O.2   153  THR153     -0.2717
     84  CB         7.6190    6.2060   -0.8420 C.3   153  THR153      0.1784
     85  OG1        8.3020    6.0140   -2.0760 O.3   153  THR153     -0.2211
     86  CG2        7.0980    4.8710   -0.2650 C.3   153  THR153      0.0376
     87  N          6.6390    8.8710   -2.8500 N.am  154  TRP154     -0.1961
     88  CA         7.3050    9.9460   -3.5520 C.3   154  TRP154      0.1771
     89  C          7.3170   11.2590   -2.7340 C.2   154  TRP154      0.2620
     90  O          6.2760   11.6910   -2.2770 O.2   154  TRP154     -0.2715
     91  CB         6.6270   10.1900   -4.8990 C.3   154  TRP154      0.0590
     92  CG         6.6100    8.9560   -5.7530 C.ar  154  TRP154      0.0006
     93  CD1        7.3840    7.8200   -5.6200 C.ar  154  TRP154      0.0946
     94  CD2        5.8060    8.7700   -6.9150 C.ar  154  TRP154      0.0152
     95  NE1        7.0790    6.9250   -6.6410 N.ar  154  TRP154     -0.2442
     96  CE2        6.1050    7.4820   -7.4320 C.ar  154  TRP154      0.0810
     97  CE3        4.8250    9.5490   -7.5420 C.ar  154  TRP154      0.0012
     98  CZ2        5.4910    6.9890   -8.5900 C.ar  154  TRP154      0.0191
     99  CZ3        4.2100    9.0540   -8.6870 C.ar  154  TRP154      0.0001
    100  CH2        4.5370    7.7770   -9.1840 C.ar  154  TRP154      0.0015
    101  N          8.4860   11.8800   -2.5950 N.am  155  GLY155     -0.1954
    102  CA         8.5820   13.1450   -1.8910 C.3   155  GLY155      0.1869
    103  C          8.3770   13.0600   -0.3780 C.2   155  GLY155      0.2309
    104  O          8.3010   14.1020    0.2700 O.2   155  GLY155     -0.2863
    105  N          9.7150   13.0070    2.3820 N.3   157  GLU157     -0.1245
    106  CA        10.9330   13.2700    3.0760 C.3   157  GLU157      0.1567
    107  C         10.6470   13.6960    4.5050 C.2   157  GLU157      0.2260
    108  O         10.7070   14.8810    4.8910 O.2   157  GLU157     -0.2867
    109  CB        11.7670   14.3550    2.3760 C.3   157  GLU157      0.0388
    110  CG        12.1620   14.0660    0.9610 C.3   157  GLU157      0.1160
    111  CD        13.5130   13.3040    0.8180 C.2   157  GLU157      0.3649
    112  OE1       14.3580   13.2920    1.7840 O.co2 157  GLU157     -0.2457
    113  OE2       13.6470   12.7570   -0.2770 O.co2 157  GLU157     -0.2457
@<TRIPOS>BOND
     1    67    65    1
     2    63    62    2
     3   100    99   ar
     4   100    98   ar
     5    64    65    1
     6    64    66    1
     7    64    61    1
     8    79    78    1
     9    99    97   ar
    10    98    96   ar
    11    62    61    1
    12    61    60    1
    13    77    78   ar
    14    77    75   ar
    15    78    76   ar
    16    97    94   ar
    17    96    94   ar
    18    96    95   ar
    19    94    92   ar
    20    75    73   ar
    21    76    74   ar
    22    95    93   ar
    23    59    57   am
    24    20    18   ar
    25    92    93   ar
    26    92    91    1
    27    73    74   ar
    28    73    72    1
    29    56    57    1
    30    56    53    1
    31    57    58    2
    32    18    17    1
    33    18    19   ar
    34    26    25    1
    35    17    14    1
    36    91    88    1
    37    55    54    2
    38    72    69    1
    39    68    69    1
    40    54    53    1
    41    53    52    1
    42    27    25    1
    43    36    35    1
    44    69    70    1
    45    25    22    1
    46    88    87    1
    47    88    89    1
    48    14    15    1
    49    14    13    1
    50    16    15    2
    51    15    21   am
    52    35    34    1
    53    21    22    1
    54    22    23    1
    55    87    82   am
    56    89   101   am
    57    89    90    2
    58    13     7   am
    59   101   102    1
    60    43    41    1
    61    12    10   ar
    62    70    71    2
    63    85    84    1
    64    80    81    1
    65   102   103    1
    66    11    10   ar
    67    34    33    1
    68    10     9    1
    69    82    81    1
    70    82    83    2
    71    23    24    2
    72     7     8    2
    73     7     6    1
    74    42    41    1
    75    41    38    1
    76    33    32    1
    77    81    84    1
    78    84    86    1
    79     6     9    1
    80     6     5    1
    81    40    39    2
    82     4     3    2
    83   103   104    2
    84   113   111   ar
    85    39    38    1
    86    38    37    1
    87    28    29    1
    88    32    29    1
    89     3     5   am
    90     3     2    1
    91   111   110    1
    92   111   112   ar
    93   110   109    1
    94    29    30    1
    95    51    49    1
    96    50    48    1
    97    49    48    1
    98     2     1    1
    99    48    45    1
   100   109   106    1
   101   105   106    1
   102    30    31    2
   103   106   107    1
   104    45    46    1
   105    45    44    1
   106    46    47    2
   107   107   108    2
