@<TRIPOS>MOLECULE
tmp/2vnhA01.pdb
 116 108 0 0 0
SMALL
GASTEIGER

@<TRIPOS>ATOM
      1  N         -8.5340   45.1510   12.6700 N.3   116  THR116     -0.1218
      2  CA        -9.4230   46.0610   13.3730 C.3   116  THR116      0.1862
      3  C        -10.4950   46.4040   12.3580 C.2   116  THR116      0.2287
      4  O        -10.2070   46.4390   11.1690 O.2   116  THR116     -0.2866
      5  CB        -8.7240   47.3590   13.8210 C.3   116  THR116      0.1770
      6  OG1       -9.6890   48.2070   14.4660 O.3   116  THR116     -0.2211
      7  CG2       -8.1280   48.1050   12.6080 C.3   116  THR116      0.0375
      8  N         -9.9970   43.6450   16.9070 N.3   144  ALA144     -0.1231
      9  CA       -10.3430   44.6820   17.8760 C.3   144  ALA144      0.1694
     10  C        -11.1360   45.8040   17.2220 C.2   144  ALA144      0.2592
     11  O        -10.6740   46.4140   16.2470 O.2   144  ALA144     -0.2718
     12  CB        -9.0690   45.2440   18.5180 C.3   144  ALA144      0.0304
     13  N        -12.3320   46.0560   17.7630 N.am  145  CYS145     -0.1956
     14  CA       -13.2320   47.1040   17.2830 C.3   145  CYS145      0.1843
     15  C        -13.6310   47.9290   18.4860 C.2   145  CYS145      0.2625
     16  O        -13.2630   47.5970   19.6090 O.2   145  CYS145     -0.2714
     17  CB       -14.4900   46.4950   16.6750 C.3   145  CYS145      0.0997
     18  SG       -14.1920   45.3520   15.3190 S.3   145  CYS145     -0.0797
     19  N        -14.3950   48.9920   18.2670 N.am  146  ARG146     -0.1977
     20  CA       -14.8260   49.8330   19.3770 C.3   146  ARG146      0.1597
     21  C        -15.9370   49.2110   20.2090 C.2   146  ARG146      0.2287
     22  O        -15.8990   49.2590   21.4450 O.2   146  ARG146     -0.2864
     23  CB       -15.2860   51.2010   18.8790 C.3   146  ARG146      0.0334
     24  CG       -14.1440   52.1550   18.6260 C.3   146  ARG146      0.0492
     25  CD       -13.7890   52.1740   17.1670 C.3   146  ARG146      0.2205
     26  NE       -14.7130   52.9950   16.3900 N.pl3 146  ARG146     -0.0865
     27  CZ       -14.6920   53.0870   15.0630 C.cat 146  ARG146      0.5346
     28  NH1      -13.7940   52.4010   14.3640 N.pl3 146  ARG146      0.1354
     29  NH2      -15.5590   53.8730   14.4350 N.pl3 146  ARG146      0.1354
     30  N        -12.7290   48.1820   22.5440 N.3   182  THR182     -0.1203
     31  CA       -11.9330   49.2110   23.2040 C.3   182  THR182      0.1994
     32  C        -12.7960   50.2700   23.8720 C.2   182  THR182      0.2617
     33  O        -12.3010   51.0580   24.6810 O.2   182  THR182     -0.2717
     34  CB       -10.9440   49.8860   22.2240 C.3   182  THR182      0.1784
     35  OG1      -11.6070   50.1680   20.9820 O.3   182  THR182     -0.2211
     36  CG2       -9.7410   48.9810   21.9840 C.3   182  THR182      0.0376
     37  N        -14.0820   50.2920   23.5240 N.am  183  ARG183     -0.1979
     38  CA       -15.0240   51.2230   24.1350 C.3   183  ARG183      0.1597
     39  C        -15.9520   50.3690   24.9890 C.2   183  ARG183      0.2287
     40  O        -15.7950   50.3000   26.2050 O.2   183  ARG183     -0.2864
     41  CB       -15.8480   51.9590   23.0870 C.3   183  ARG183      0.0334
     42  CG       -15.0590   52.4630   21.8980 C.3   183  ARG183      0.0492
     43  CD       -13.9160   53.4080   22.2430 C.3   183  ARG183      0.2205
     44  NE       -13.6180   54.2460   21.0810 N.pl3 183  ARG183     -0.0865
     45  CZ       -12.5420   55.0150   20.9480 C.cat 183  ARG183      0.5346
     46  NH1      -11.6260   55.0610   21.9130 N.pl3 183  ARG183      0.1354
     47  NH2      -12.3890   55.7450   19.8480 N.pl3 183  ARG183      0.1354
     48  N         -6.5060   47.1840   22.9730 N.3   191  ARG191     -0.1245
     49  CA        -6.0760   47.2250   21.5760 C.3   191  ARG191      0.1563
     50  C         -5.1120   46.0800   21.3030 C.2   191  ARG191      0.2260
     51  O         -4.4750   45.5690   22.2180 O.2   191  ARG191     -0.2867
     52  CB        -5.3640   48.5490   21.2750 C.3   191  ARG191      0.0307
     53  CG        -6.2450   49.7850   21.2550 C.3   191  ARG191      0.0489
     54  CD        -5.3870   51.0550   21.4000 C.3   191  ARG191      0.2205
     55  NE        -4.0240   50.8720   20.8910 N.pl3 191  ARG191     -0.0865
     56  CZ        -3.1010   51.8340   20.8360 C.cat 191  ARG191      0.5346
     57  NH1       -3.3940   53.0550   21.2590 N.pl3 191  ARG191      0.1354
     58  NH2       -1.8830   51.5770   20.3610 N.pl3 191  ARG191      0.1354
     59  N         -2.1470   46.0630   19.5880 N.3   193  THR193     -0.1218
     60  CA        -0.7590   46.4380   19.8580 C.3   193  THR193      0.1862
     61  C         -0.4970   46.2730   21.3570 C.2   193  THR193      0.2287
     62  O          0.3740   45.5110   21.7750 O.2   193  THR193     -0.2866
     63  CB        -0.5070   47.9000   19.4780 C.3   193  THR193      0.1770
     64  OG1       -1.5790   48.7000   19.9900 O.3   193  THR193     -0.2211
     65  CG2       -0.4370   48.0660   17.9690 C.3   193  THR193      0.0375
     66  N         -5.9810   50.2800    9.9670 N.3   222  SER222     -0.1217
     67  CA        -5.7520   51.6140    9.4220 C.3   222  SER222      0.1889
     68  C         -4.2340   51.7450    9.3050 C.2   222  SER222      0.2288
     69  O         -3.5000   50.8610    9.7620 O.2   222  SER222     -0.2866
     70  CB        -6.2720   52.6580   10.3960 C.3   222  SER222      0.2089
     71  OG        -5.6030   52.5120   11.6370 O.3   222  SER222     -0.2183
     72  N         -2.2900   53.8850   10.8660 N.3   224  ALA224     -0.1231
     73  CA        -1.7430   54.0270   12.2180 C.3   224  ALA224      0.1694
     74  C         -1.6130   52.6720   12.9060 C.2   224  ALA224      0.2592
     75  O         -0.6510   52.4190   13.6460 O.2   224  ALA224     -0.2718
     76  CB        -2.6250   54.9480   13.0400 C.3   224  ALA224      0.0304
     77  N         -2.5950   51.8070   12.6460 N.am  225  PHE225     -0.1976
     78  CA        -2.6460   50.4630   13.2020 C.3   225  PHE225      0.1639
     79  C         -1.5360   49.6030   12.5990 C.2   225  PHE225      0.2290
     80  O         -0.8570   48.8500   13.3070 O.2   225  PHE225     -0.2864
     81  CB        -4.0110   49.8440   12.8940 C.3   225  PHE225      0.0560
     82  CG        -4.1830   48.4450   13.4150 C.ar  225  PHE225     -0.0200
     83  CD1       -4.4710   48.2200   14.7560 C.ar  225  PHE225     -0.0042
     84  CD2       -4.0560   47.3510   12.5640 C.ar  225  PHE225     -0.0042
     85  CE1       -4.6320   46.9160   15.2550 C.ar  225  PHE225     -0.0003
     86  CE2       -4.2130   46.0490   13.0430 C.ar  225  PHE225     -0.0003
     87  CZ        -4.5040   45.8300   14.4010 C.ar  225  PHE225     -0.0000
     88  N          1.9750   50.8990   13.9220 N.3   228  ASP228     -0.1239
     89  CA         2.0120   50.5460   15.3420 C.3   228  ASP228      0.1674
     90  C          2.2510   49.0530   15.5020 C.2   228  ASP228      0.2266
     91  O          3.1630   48.6300   16.2150 O.2   228  ASP228     -0.2867
     92  CB         0.6910   50.9100   16.0110 C.3   228  ASP228      0.1410
     93  CG         0.7160   52.2850   16.6480 C.2   228  ASP228      0.3668
     94  OD1        1.2380   53.2320   16.0220 O.co2 228  ASP228     -0.2456
     95  OD2        0.2010   52.4200   17.7750 O.co2 228  ASP228     -0.2456
     96  N         -8.3300   58.2570    7.5460 N.3   258  GLU258     -0.1231
     97  CA        -8.2700   58.1240    8.9990 C.3   258  GLU258      0.1699
     98  C         -9.3630   57.2110    9.5470 C.2   258  GLU258      0.2593
     99  O         -9.2760   56.7290   10.6770 O.2   258  GLU258     -0.2718
    100  CB        -8.3440   59.5020    9.6600 C.3   258  GLU258      0.0402
    101  CG        -7.1760   60.4110    9.2760 C.3   258  GLU258      0.1161
    102  CD        -7.2810   61.8010    9.8780 C.2   258  GLU258      0.3649
    103  OE1       -7.0870   61.9430   11.1080 O.co2 258  GLU258     -0.2457
    104  OE2       -7.5650   62.7520    9.1130 O.co2 258  GLU258     -0.2457
    105  N        -10.3910   56.9720    8.7420 N.am  259  GLY259     -0.1942
    106  CA       -11.4570   56.0900    9.1720 C.3   259  GLY259      0.2014
    107  C        -12.5990   56.7520    9.9100 C.2   259  GLY259      0.2638
    108  O        -12.4210   57.7690   10.5920 O.2   259  GLY259     -0.2714
    109  N        -13.7800   56.1560    9.7710 N.am  260  ILE260     -0.1977
    110  CA       -14.9860   56.6600   10.4110 C.3   260  ILE260      0.1596
    111  C        -15.5070   55.6380   11.4170 C.2   260  ILE260      0.2287
    112  O        -15.0240   54.4880   11.3800 O.2   260  ILE260     -0.2864
    113  CB       -16.0850   56.9640    9.3530 C.3   260  ILE260      0.0276
    114  CG1      -16.4680   55.6910    8.5860 C.3   260  ILE260      0.0022
    115  CG2      -15.5790   58.0220    8.3700 C.3   260  ILE260      0.0022
    116  CD1      -17.3860   54.7430    9.3420 C.3   260  ILE260      0.0001
@<TRIPOS>BOND
     1    96    97    1
     2   115   113    1
     3   114   116    1
     4   114   113    1
     5   105   106    1
     6   105    98   am
     7    97    98    1
     8    97   100    1
     9   104   102   ar
    10   106   107    1
    11   101   100    1
    12   101   102    1
    13    68    67    1
    14    68    69    2
    15   113   110    1
    16    67    66    1
    17    67    70    1
    18    98    99    2
    19   109   107   am
    20   109   110    1
    21   102   103   ar
    22   107   108    2
    23    70    71    1
    24   110   111    1
    25    72    73    1
    26     4     3    2
    27   112   111    2
    28    73    74    1
    29    73    76    1
    30     3     2    1
    31    84    86   ar
    32    84    82   ar
    33    79    78    1
    34    79    80    2
    35     7     5    1
    36    77    74   am
    37    77    78    1
    38     1     2    1
    39    81    78    1
    40    81    82    1
    41    74    75    2
    42    86    87   ar
    43     2     5    1
    44    82    83   ar
    45     5     6    1
    46    88    89    1
    47    28    27    1
    48    87    85   ar
    49    29    27    1
    50    83    85   ar
    51    27    26    2
    52    18    17    1
    53    89    90    1
    54    89    92    1
    55    90    91    2
    56    92    93    1
    57    94    93   ar
    58    11    10    2
    59    26    25    1
    60    93    95   ar
    61    17    14    1
    62     8     9    1
    63    25    24    1
    64    10    13   am
    65    10     9    1
    66    14    13    1
    67    14    15    1
    68     9    12    1
    69    65    63    1
    70    19    15   am
    71    19    20    1
    72    15    16    2
    73    24    23    1
    74    23    20    1
    75    20    21    1
    76    63    60    1
    77    63    64    1
    78    59    60    1
    79    47    45    1
    80    60    61    1
    81    21    22    2
    82    58    56    1
    83    56    55    2
    84    56    57    1
    85    55    54    1
    86    45    44    2
    87    45    46    1
    88    35    34    1
    89    44    43    1
    90    53    52    1
    91    53    54    1
    92    52    49    1
    93    50    49    1
    94    50    51    2
    95    61    62    2
    96    49    48    1
    97    42    43    1
    98    42    41    1
    99    36    34    1
   100    34    31    1
   101    30    31    1
   102    41    38    1
   103    31    32    1
   104    37    32   am
   105    37    38    1
   106    32    33    2
   107    38    39    1
   108    39    40    2
