@<TRIPOS>MOLECULE
tmp/2vniA01.pdb
 148 140 0 0 0
SMALL
GASTEIGER

@<TRIPOS>ATOM
      1  N         -8.7590   55.6280    7.4280 N.3   113  THR113     -0.1203
      2  CA        -9.7490   55.7460    8.4930 C.3   113  THR113      0.1994
      3  C        -11.1210   55.5950    7.8490 C.2   113  THR113      0.2618
      4  O        -11.3060   55.9560    6.6870 O.2   113  THR113     -0.2717
      5  CB        -9.7030   57.1180    9.2240 C.3   113  THR113      0.1784
      6  OG1       -9.9570   58.1790    8.2960 O.3   113  THR113     -0.2211
      7  CG2       -8.3610   57.3250    9.8790 C.3   113  THR113      0.0376
      8  N        -12.0730   55.0510    8.6000 N.am  114  GLY114     -0.1956
      9  CA       -13.4220   54.8820    8.0840 C.3   114  GLY114      0.1869
     10  C        -13.5090   54.1470    6.7610 C.2   114  GLY114      0.2309
     11  O        -12.8580   53.1160    6.5760 O.2   114  GLY114     -0.2863
     12  N         -7.7720   52.8280   11.1010 N.3   141  ALA141     -0.1231
     13  CA        -8.2750   53.3910   12.3500 C.3   141  ALA141      0.1694
     14  C         -9.7320   53.8260   12.2470 C.2   141  ALA141      0.2592
     15  O        -10.0960   54.6170   11.3710 O.2   141  ALA141     -0.2718
     16  CB        -7.4100   54.5840   12.7900 C.3   141  ALA141      0.0304
     17  N        -10.5500   53.3070   13.1590 N.am  142  CYS142     -0.1956
     18  CA       -11.9700   53.6290   13.2260 C.3   142  CYS142      0.1843
     19  C        -12.3470   53.8850   14.6880 C.2   142  CYS142      0.2625
     20  O        -11.5590   53.6030   15.5920 O.2   142  CYS142     -0.2714
     21  CB       -12.8020   52.4690   12.6920 C.3   142  CYS142      0.0997
     22  SG       -12.5930   52.1100   10.9380 S.3   142  CYS142     -0.0797
     23  N        -13.5400   54.4200   14.9260 N.am  143  ARG143     -0.1977
     24  CA       -13.9930   54.6810   16.2910 C.3   143  ARG143      0.1597
     25  C        -14.3190   53.3840   17.0490 C.2   143  ARG143      0.2287
     26  O        -13.9460   53.2320   18.2130 O.2   143  ARG143     -0.2864
     27  CB       -15.2500   55.5500   16.2990 C.3   143  ARG143      0.0334
     28  CG       -15.0920   56.9770   15.8430 C.3   143  ARG143      0.0492
     29  CD       -16.2860   57.7980   16.3420 C.3   143  ARG143      0.2205
     30  NE       -16.5640   58.9850   15.5320 N.pl3 143  ARG143     -0.0865
     31  CZ       -17.2150   58.9680   14.3680 C.cat 143  ARG143      0.5346
     32  NH1      -17.6650   57.8220   13.8590 N.pl3 143  ARG143      0.1354
     33  NH2      -17.4210   60.1000   13.7100 N.pl3 143  ARG143      0.1354
     34  N        -16.7660   48.7630   13.0240 N.3   147  GLU147     -0.1245
     35  CA       -16.4080   49.4430   11.7840 C.3   147  GLU147      0.1567
     36  C        -15.1380   48.8750   11.1390 C.2   147  GLU147      0.2260
     37  O        -14.8090   49.2240   10.0140 O.2   147  GLU147     -0.2867
     38  CB       -16.2430   50.9390   12.0410 C.3   147  GLU147      0.0388
     39  CG       -17.3500   51.5110   12.9070 C.3   147  GLU147      0.1160
     40  CD       -17.2750   53.0090   13.0480 C.2   147  GLU147      0.3649
     41  OE1      -17.6760   53.7160   12.1020 O.co2 147  GLU147     -0.2457
     42  OE2      -16.8080   53.4850   14.0990 O.co2 147  GLU147     -0.2457
     43  N        -10.3250   54.1090   18.3440 N.3   179  THR179     -0.1203
     44  CA        -9.9890   55.3010   19.1070 C.3   179  THR179      0.1994
     45  C        -11.0130   55.5930   20.1990 C.2   179  THR179      0.2617
     46  O        -10.8210   56.4950   21.0190 O.2   179  THR179     -0.2717
     47  CB        -9.8500   56.5340   18.1790 C.3   179  THR179      0.1784
     48  OG1      -10.9980   56.6330   17.3320 O.3   179  THR179     -0.2211
     49  CG2       -8.5910   56.4160   17.3220 C.3   179  THR179      0.0376
     50  N        -12.0970   54.8220   20.2050 N.am  180  ARG180     -0.1979
     51  CA       -13.1610   54.9710   21.1960 C.3   180  ARG180      0.1597
     52  C        -13.3430   53.6920   22.0160 C.2   180  ARG180      0.2287
     53  O        -13.0640   53.6730   23.2110 O.2   180  ARG180     -0.2864
     54  CB       -14.4820   55.3250   20.5030 C.3   180  ARG180      0.0334
     55  CG       -14.7780   56.8170   20.4040 C.3   180  ARG180      0.0492
     56  CD       -13.7050   57.5730   19.6520 C.3   180  ARG180      0.2205
     57  NE       -13.8410   59.0150   19.8420 N.pl3 180  ARG180     -0.0865
     58  CZ       -14.2170   59.8700   18.8940 C.cat 180  ARG180      0.5346
     59  NH1      -14.4980   59.4420   17.6690 N.pl3 180  ARG180      0.1354
     60  NH2      -14.3070   61.1640   19.1710 N.pl3 180  ARG180      0.1354
     61  N         -4.7990   56.8930   17.0580 N.3   188  ARG188     -0.1231
     62  CA        -4.8530   57.4350   15.7020 C.3   188  ARG188      0.1694
     63  C         -3.6130   57.0230   14.9130 C.2   188  ARG188      0.2592
     64  O         -2.5650   56.7530   15.4970 O.2   188  ARG188     -0.2718
     65  CB        -4.9070   58.9660   15.7480 C.3   188  ARG188      0.0321
     66  CG        -6.1450   59.5500   16.3840 C.3   188  ARG188      0.0489
     67  CD        -6.0730   61.0610   16.3460 C.3   188  ARG188      0.2205
     68  NE        -7.3820   61.6730   16.5320 N.pl3 188  ARG188     -0.0865
     69  CZ        -7.6480   62.9460   16.2580 C.cat 188  ARG188      0.5346
     70  NH1       -6.6900   63.7360   15.7900 N.pl3 188  ARG188      0.1354
     71  NH2       -8.8750   63.4240   16.4310 N.pl3 188  ARG188      0.1354
     72  N         -3.7290   56.9810   13.5890 N.am  189  ILE189     -0.1966
     73  CA        -2.5940   56.6150   12.7440 C.3   189  ILE189      0.1727
     74  C         -1.4450   57.5960   13.0170 C.2   189  ILE189      0.2616
     75  O         -0.3090   57.1860   13.2480 O.2   189  ILE189     -0.2715
     76  CB        -2.9490   56.6870   11.2390 C.3   189  ILE189      0.0290
     77  CG1       -4.0870   55.7210   10.9110 C.3   189  ILE189      0.0022
     78  CG2       -1.7160   56.3530   10.3930 C.3   189  ILE189      0.0023
     79  CD1       -3.7360   54.2720   11.0990 C.3   189  ILE189      0.0001
     80  N         -1.7530   58.8910   12.9860 N.am  190  THR190     -0.1951
     81  CA        -0.7570   59.9270   13.2330 C.3   190  THR190      0.1897
     82  C         -0.0060   59.7190   14.5590 C.2   190  THR190      0.2313
     83  O          1.2230   59.6630   14.5780 O.2   190  THR190     -0.2863
     84  CB        -1.4030   61.3260   13.2230 C.3   190  THR190      0.1794
     85  OG1       -2.5310   61.3460   14.1080 O.3   190  THR190     -0.2208
     86  CG2       -1.8670   61.6840   11.8180 C.3   190  THR190      0.0378
     87  N        -10.2460   61.6840    5.9800 N.3   219  SER219     -0.1217
     88  CA       -10.7840   63.0340    5.8080 C.3   219  SER219      0.1889
     89  C         -9.6500   63.9530    5.3840 C.2   219  SER219      0.2288
     90  O         -8.4750   63.5780    5.4600 O.2   219  SER219     -0.2866
     91  CB       -11.3720   63.5510    7.1140 C.3   219  SER219      0.2089
     92  OG       -10.3700   63.6580    8.1170 O.3   219  SER219     -0.2183
     93  N         -8.6340   66.6310    6.9050 N.3   221  ALA221     -0.1231
     94  CA        -7.8470   66.9410    8.0980 C.3   221  ALA221      0.1694
     95  C         -6.8840   65.8090    8.4080 C.2   221  ALA221      0.2592
     96  O         -5.7350   66.0430    8.7620 O.2   221  ALA221     -0.2718
     97  CB        -8.7670   67.1930    9.2980 C.3   221  ALA221      0.0304
     98  N         -7.3620   64.5790    8.2760 N.am  222  PHE222     -0.1976
     99  CA        -6.5400   63.4000    8.5280 C.3   222  PHE222      0.1639
    100  C         -5.3730   63.4250    7.5580 C.2   222  PHE222      0.2290
    101  O         -4.2170   63.3450    7.9640 O.2   222  PHE222     -0.2864
    102  CB        -7.3660   62.1320    8.3020 C.3   222  PHE222      0.0560
    103  CG        -6.5550   60.8700    8.2430 C.ar  222  PHE222     -0.0200
    104  CD1       -6.0790   60.2780    9.4000 C.ar  222  PHE222     -0.0042
    105  CD2       -6.3050   60.2530    7.0240 C.ar  222  PHE222     -0.0042
    106  CE1       -5.3720   59.0830    9.3490 C.ar  222  PHE222     -0.0003
    107  CE2       -5.5980   59.0590    6.9580 C.ar  222  PHE222     -0.0003
    108  CZ        -5.1310   58.4710    8.1200 C.ar  222  PHE222     -0.0000
    109  N         -2.7550   66.0430    8.4890 N.3   225  ASP225     -0.1239
    110  CA        -1.9750   65.6520    9.6670 C.3   225  ASP225      0.1674
    111  C         -1.0560   64.4790    9.3590 C.2   225  ASP225      0.2266
    112  O          0.0530   64.4080    9.8790 O.2   225  ASP225     -0.2867
    113  CB        -2.8810   65.2710   10.8520 C.3   225  ASP225      0.1410
    114  CG        -3.7050   66.4400   11.3720 C.2   225  ASP225      0.3668
    115  OD1       -3.3420   67.6100   11.1090 O.co2 225  ASP225     -0.2456
    116  OD2       -4.7160   66.1860   12.0610 O.co2 225  ASP225     -0.2456
    117  N        -13.5930   61.3330    1.7020 N.3   252  PHE252     -0.1241
    118  CA       -14.8860   61.9910    1.5170 C.3   252  PHE252      0.1605
    119  C        -14.6890   63.5060    1.6340 C.2   252  PHE252      0.2264
    120  O        -13.6280   63.9690    2.0500 O.2   252  PHE252     -0.2867
    121  CB       -15.8900   61.5120    2.5790 C.3   252  PHE252      0.0534
    122  CG       -15.3690   61.5880    3.9920 C.ar  252  PHE252     -0.0203
    123  CD1      -15.3230   62.8050    4.6740 C.ar  252  PHE252     -0.0042
    124  CD2      -14.9080   60.4410    4.6370 C.ar  252  PHE252     -0.0042
    125  CE1      -14.8270   62.8790    5.9850 C.ar  252  PHE252     -0.0003
    126  CE2      -14.4090   60.5040    5.9530 C.ar  252  PHE252     -0.0003
    127  CZ       -14.3700   61.7250    6.6240 C.ar  252  PHE252     -0.0000
    128  N        -16.1490   67.3300    6.9530 N.3   255  GLU255     -0.1231
    129  CA       -15.6180   66.8220    8.2100 C.3   255  GLU255      0.1699
    130  C        -16.0020   65.3780    8.4970 C.2   255  GLU255      0.2593
    131  O        -15.3740   64.7130    9.3190 O.2   255  GLU255     -0.2718
    132  CB       -16.0450   67.7330    9.3630 C.3   255  GLU255      0.0402
    133  CG       -15.3050   69.0650    9.3600 C.3   255  GLU255      0.1161
    134  CD       -15.5820   69.8980   10.5980 C.2   255  GLU255      0.3649
    135  OE1      -15.3850   69.3870   11.7280 O.co2 255  GLU255     -0.2457
    136  OE2      -15.9900   71.0720   10.4400 O.co2 255  GLU255     -0.2457
    137  N        -17.0260   64.8900    7.8060 N.am  256  GLY256     -0.1942
    138  CA       -17.4490   63.5180    8.0080 C.3   256  GLY256      0.2014
    139  C        -18.3920   63.3790    9.1800 C.2   256  GLY256      0.2638
    140  O        -18.3210   64.1590   10.1400 O.2   256  GLY256     -0.2714
    141  N        -19.2800   62.3930    9.1090 N.am  257  ILE257     -0.1977
    142  CA       -20.2360   62.1710   10.1850 C.3   257  ILE257      0.1596
    143  C        -19.5650   61.5050   11.3880 C.2   257  ILE257      0.2287
    144  O        -19.5100   62.1490   12.4600 O.2   257  ILE257     -0.2864
    145  CB       -21.4440   61.3180    9.6960 C.3   257  ILE257      0.0276
    146  CG1      -20.9660   60.1160    8.8710 C.3   257  ILE257      0.0022
    147  CG2      -22.3850   62.1790    8.8740 C.3   257  ILE257      0.0022
    148  CD1      -20.6890   58.8600    9.6720 C.3   257  ILE257      0.0001
@<TRIPOS>BOND
     1   118   119    1
     2   118   117    1
     3   118   121    1
     4   119   120    2
     5   121   122    1
     6   122   124   ar
     7   122   123   ar
     8   124   126   ar
     9   123   125   ar
    10    89    90    2
    11    89    88    1
    12    88    87    1
    13    88    91    1
    14   126   127   ar
    15   125   127   ar
    16    11    10    2
    17     4     3    2
    18    10     9    1
    19    93    94    1
    20   128   129    1
    21   107   105   ar
    22   107   108   ar
    23   105   103   ar
    24    91    92    1
    25     1     2    1
    26   100   101    2
    27   100    99    1
    28   137   138    1
    29   137   130   am
    30     3     2    1
    31     3     8   am
    32   138   139    1
    33     9     8    1
    34    94    95    1
    35    94    97    1
    36   108   106   ar
    37   129   130    1
    38   129   132    1
    39   103   102    1
    40   103   104   ar
    41    98    95   am
    42    98    99    1
    43     6     5    1
    44   102    99    1
    45    95    96    2
    46   109   110    1
    47     2     5    1
    48   130   131    2
    49   146   148    1
    50   146   145    1
    51   147   145    1
    52   141   139   am
    53   141   142    1
    54   139   140    2
    55     5     7    1
    56   106   104   ar
    57   111   110    1
    58   111   112    2
    59   133   132    1
    60   133   134    1
    61   110   113    1
    62   145   142    1
    63    37    36    2
    64   142   143    1
    65    78    76    1
    66   136   134   ar
    67   134   135   ar
    68   113   114    1
    69    77    79    1
    70    77    76    1
    71    22    21    1
    72    12    13    1
    73   115   114   ar
    74    36    35    1
    75    76    73    1
    76    15    14    2
    77   114   116   ar
    78   143   144    2
    79    35    38    1
    80    35    34    1
    81    86    84    1
    82    38    39    1
    83    41    40   ar
    84    14    13    1
    85    14    17   am
    86    13    16    1
    87    21    18    1
    88    73    74    1
    89    73    72    1
    90    39    40    1
    91    80    74   am
    92    80    81    1
    93    74    75    2
    94    40    42   ar
    95    17    18    1
    96    84    81    1
    97    84    85    1
    98    18    19    1
    99    81    82    1
   100    72    63   am
   101    33    31    1
   102    32    31    1
   103    31    30    2
   104    82    83    2
   105    19    23   am
   106    19    20    2
   107    63    64    2
   108    63    62    1
   109    23    24    1
   110    30    29    1
   111    62    65    1
   112    62    61    1
   113    65    66    1
   114    70    69    1
   115    28    27    1
   116    28    29    1
   117    69    71    1
   118    69    68    2
   119    24    27    1
   120    24    25    1
   121    67    66    1
   122    67    68    1
   123    25    26    2
   124    49    47    1
   125    48    47    1
   126    59    58    1
   127    47    44    1
   128    43    44    1
   129    58    60    1
   130    58    57    2
   131    44    45    1
   132    56    57    1
   133    56    55    1
   134    45    50   am
   135    45    46    2
   136    50    51    1
   137    55    54    1
   138    54    51    1
   139    51    52    1
   140    52    53    2
