@<TRIPOS>MOLECULE
tmp/2vnkB01.pdb
 110 103 0 0 0
SMALL
GASTEIGER

@<TRIPOS>ATOM
      1  N         14.1360    0.3090    1.8370 N.3   113  THR113     -0.1203
      2  CA        14.4690    1.4770    1.0380 C.3   113  THR113      0.1994
      3  C         13.5420    2.6350    1.3810 C.2   113  THR113      0.2618
      4  O         12.3760    2.4060    1.6920 O.2   113  THR113     -0.2717
      5  CB        14.3950    1.1510   -0.4390 C.3   113  THR113      0.1784
      6  OG1       14.9890    2.2230   -1.1870 O.3   113  THR113     -0.2211
      7  CG2       12.9220    1.0930   -0.9130 C.3   113  THR113      0.0376
      8  N         14.0720    3.8670    1.3360 N.am  114  GLY114     -0.1956
      9  CA        13.2870    5.0640    1.5680 C.3   114  GLY114      0.1869
     10  C         12.5520    4.9960    2.8950 C.2   114  GLY114      0.2309
     11  O         13.1400    4.6350    3.9050 O.2   114  GLY114     -0.2863
     12  N         18.8640    1.4530    1.9660 N.3   141  ALA141     -0.1231
     13  CA        19.2830    1.9920    0.6810 C.3   141  ALA141      0.1694
     14  C         18.3520    3.1340    0.2390 C.2   141  ALA141      0.2592
     15  O         17.1250    2.9880    0.2230 O.2   141  ALA141     -0.2718
     16  CB        19.3010    0.8810   -0.3650 C.3   141  ALA141      0.0304
     17  N         18.9520    4.2720   -0.0990 N.am  142  CYS142     -0.1956
     18  CA        18.2340    5.4340   -0.6270 C.3   142  CYS142      0.1843
     19  C         19.0020    6.0240   -1.8150 C.2   142  CYS142      0.2628
     20  O         20.1480    5.7110   -2.0030 O.2   142  CYS142     -0.2714
     21  CB        18.0850    6.4900    0.4670 C.3   142  CYS142      0.0997
     22  SG        16.9830    6.0290    1.8350 S.3   142  CYS142     -0.0797
     23  N         18.3630    6.8930   -2.5980 N.am  143  ARG143     -0.1932
     24  CA        19.0450    7.6160   -3.6830 C.3   143  ARG143      0.1814
     25  C         20.1280    8.5470   -3.1650 C.2   143  ARG143      0.2332
     26  O         21.2130    8.6100   -3.7470 O.2   143  ARG143     -0.2860
     27  CB        18.0850    8.4640   -4.5270 C.2   143  ARG143      0.0019
     28  CG        16.8610    7.7510   -5.0090 C.2   143  ARG143      0.0178
     29  CD        15.8110    8.6300   -5.6680 C.3   143  ARG143      0.2464
     30  NE        14.4790    8.0740   -5.4110 N.pl3 143  ARG143     -0.0815
     31  CZ        13.6310    8.4320   -4.4300 C.cat 143  ARG143      0.5349
     32  NH1       13.9120    9.4010   -3.5660 N.pl3 143  ARG143      0.1354
     33  NH2       12.4640    7.7970   -4.3200 N.pl3 143  ARG143      0.1354
     34  N         22.3500    5.1080   -3.8040 N.3   179  THR179     -0.1203
     35  CA        22.4330    4.5850   -5.1660 C.3   179  THR179      0.1994
     36  C         22.6870    5.6370   -6.2480 C.2   179  THR179      0.2617
     37  O         22.9350    5.2860   -7.3920 O.2   179  THR179     -0.2717
     38  CB        21.1750    3.8010   -5.5300 C.3   179  THR179      0.1784
     39  OG1       20.0240    4.6310   -5.3740 O.3   179  THR179     -0.2211
     40  CG2       20.9770    2.6420   -4.5820 C.3   179  THR179      0.0376
     41  N         22.6120    6.9150   -5.9070 N.am  180  ARG180     -0.1979
     42  CA        22.8850    7.9550   -6.8880 C.3   180  ARG180      0.1597
     43  C         24.0160    8.8640   -6.4080 C.2   180  ARG180      0.2287
     44  O         25.0430    8.9940   -7.0910 O.2   180  ARG180     -0.2864
     45  CB        21.6060    8.7200   -7.2150 C.3   180  ARG180      0.0334
     46  CG        20.4790    7.7780   -7.6440 C.3   180  ARG180      0.0492
     47  CD        19.2740    8.4520   -8.2840 C.3   180  ARG180      0.2205
     48  NE        18.6750    7.6190   -9.3290 N.pl3 180  ARG180     -0.0865
     49  CZ        17.7600    6.6700   -9.1410 C.cat 180  ARG180      0.5346
     50  NH1       17.3030    6.3910   -7.9380 N.pl3 180  ARG180      0.1354
     51  NH2       17.3080    5.9800  -10.1770 N.pl3 180  ARG180      0.1354
     52  N         22.4200   -0.9170   -4.4680 N.3   188  ARG188     -0.1245
     53  CA        21.1750   -1.5430   -4.0310 C.3   188  ARG188      0.1563
     54  C         21.3750   -2.6850   -3.0700 C.2   188  ARG188      0.2260
     55  O         22.4210   -3.3560   -3.0740 O.2   188  ARG188     -0.2867
     56  CB        20.3890   -2.0800   -5.2040 C.3   188  ARG188      0.0307
     57  CG        19.8500   -1.0130   -6.1350 C.3   188  ARG188      0.0489
     58  CD        19.3370   -1.6290   -7.4310 C.3   188  ARG188      0.2205
     59  NE        18.7140   -0.6510   -8.3020 N.pl3 188  ARG188     -0.0865
     60  CZ        17.8450   -0.9270   -9.2770 C.cat 188  ARG188      0.5346
     61  NH1       17.4870   -2.1780   -9.5360 N.pl3 188  ARG188      0.1354
     62  NH2       17.3320    0.0580   -9.9990 N.pl3 188  ARG188      0.1354
     63  N         19.6790   -5.5060   -3.1210 N.3   190  THR190     -0.1218
     64  CA        19.7130   -6.7170   -3.9510 C.3   190  THR190      0.1862
     65  C         21.1220   -7.0450   -4.4490 C.2   190  THR190      0.2287
     66  O         21.6210   -8.1680   -4.2510 O.2   190  THR190     -0.2866
     67  CB        18.7900   -6.5660   -5.1680 C.3   190  THR190      0.1770
     68  OG1       18.9200   -5.2510   -5.7220 O.3   190  THR190     -0.2211
     69  CG2       17.3440   -6.6780   -4.7380 C.3   190  THR190      0.0375
     70  N          9.3560   -0.5390   -2.1540 N.3   219  SER219     -0.1217
     71  CA         8.4190   -0.5720   -3.2580 C.3   219  SER219      0.1889
     72  C          8.1780   -2.0280   -3.6840 C.2   219  SER219      0.2288
     73  O          8.9590   -2.9260   -3.3590 O.2   219  SER219     -0.2866
     74  CB         8.9780    0.2060   -4.4380 C.3   219  SER219      0.2089
     75  OG        10.0630   -0.5100   -5.0160 O.3   219  SER219     -0.2183
     76  N          8.5570   -3.3130   -6.6030 N.3   221  ALA221     -0.1231
     77  CA         9.6940   -3.6550   -7.4640 C.3   221  ALA221      0.1694
     78  C         10.8770   -4.1650   -6.6330 C.2   221  ALA221      0.2592
     79  O         11.4590   -5.1840   -6.9380 O.2   221  ALA221     -0.2718
     80  CB        10.1040   -2.4420   -8.3210 C.3   221  ALA221      0.0304
     81  N         11.1830   -3.4400   -5.5670 N.am  222  PHE222     -0.1976
     82  CA        12.2470   -3.7730   -4.6080 C.3   222  PHE222      0.1639
     83  C         11.9380   -5.0960   -3.9090 C.2   222  PHE222      0.2290
     84  O         12.7990   -5.9760   -3.8120 O.2   222  PHE222     -0.2864
     85  CB        12.3690   -2.6110   -3.6050 C.3   222  PHE222      0.0560
     86  CG        13.1860   -2.9110   -2.3770 C.ar  222  PHE222     -0.0200
     87  CD1       14.5510   -2.6660   -2.3720 C.ar  222  PHE222     -0.0042
     88  CD2       12.5860   -3.3990   -1.2150 C.ar  222  PHE222     -0.0042
     89  CE1       15.3230   -2.9240   -1.2390 C.ar  222  PHE222     -0.0003
     90  CE2       13.3380   -3.6590   -0.0730 C.ar  222  PHE222     -0.0003
     91  CZ        14.7200   -3.4300   -0.0860 C.ar  222  PHE222     -0.0000
     92  N         12.3830   -8.1710   -6.2200 N.3   225  ASP225     -0.1239
     93  CA        13.7960   -8.4550   -6.4690 C.3   225  ASP225      0.1674
     94  C         14.5410   -8.9720   -5.2300 C.2   225  ASP225      0.2266
     95  O         15.3770   -9.8610   -5.3370 O.2   225  ASP225     -0.2867
     96  CB        14.4930   -7.2150   -7.0150 C.3   225  ASP225      0.1410
     97  CG        14.1900   -6.9750   -8.4820 C.2   225  ASP225      0.3668
     98  OD1       13.5870   -7.8400   -9.1410 O.co2 225  ASP225     -0.2456
     99  OD2       14.5210   -5.9310   -9.0600 O.co2 225  ASP225     -0.2456
    100  N          4.8610    1.4640    0.3130 N.3   252  PHE252     -0.1241
    101  CA         3.8180    2.2870   -0.2770 C.3   252  PHE252      0.1605
    102  C          3.2830    1.5420   -1.5070 C.2   252  PHE252      0.2264
    103  O          3.9140    0.5930   -1.9960 O.2   252  PHE252     -0.2867
    104  CB         4.3850    3.6580   -0.6570 C.3   252  PHE252      0.0534
    105  CG         5.4820    3.5880   -1.6850 C.ar  252  PHE252     -0.0203
    106  CD1        5.1870    3.7120   -3.0290 C.ar  252  PHE252     -0.0042
    107  CD2        6.8010    3.3720   -1.3040 C.ar  252  PHE252     -0.0042
    108  CE1        6.1950    3.6050   -3.9920 C.ar  252  PHE252     -0.0003
    109  CE2        7.8140    3.2890   -2.2610 C.ar  252  PHE252     -0.0003
    110  CZ         7.5030    3.3940   -3.6020 C.ar  252  PHE252     -0.0000
@<TRIPOS>BOND
     1    51    49    1
     2    62    60    1
     3    61    60    1
     4    48    49    2
     5    48    47    1
     6    60    59    2
     7    98    97   ar
     8    49    50    1
     9    99    97   ar
    10    97    96    1
    11    80    77    1
    12    59    58    1
    13    47    46    1
    14    46    45    1
    15    77    78    1
    16    77    76    1
    17    58    57    1
    18    37    36    2
    19    45    42    1
    20    44    43    2
    21    96    93    1
    22    79    78    2
    23    42    43    1
    24    42    41    1
    25    78    81   am
    26    93    92    1
    27    93    94    1
    28    36    41   am
    29    36    35    1
    30    57    56    1
    31    68    67    1
    32    29    30    1
    33    29    28    1
    34    81    82    1
    35    38    39    1
    36    38    35    1
    37    38    40    1
    38    30    31    2
    39    95    94    2
    40    56    53    1
    41    67    69    1
    42    67    64    1
    43    35    34    1
    44    75    74    1
    45    28    27    2
    46    82    83    1
    47    82    85    1
    48    27    24    1
    49    52    53    1
    50    65    66    2
    51    65    64    1
    52    74    71    1
    53    31    33    1
    54    31    32    1
    55    53    54    1
    56   108   110   ar
    57   108   106   ar
    58    64    63    1
    59    83    84    2
    60    26    25    2
    61    72    73    2
    62    72    71    1
    63    24    25    1
    64    24    23    1
    65    85    86    1
    66   110   109   ar
    67    71    70    1
    68    55    54    2
    69   106   105   ar
    70    23    19   am
    71    86    87   ar
    72    86    88   ar
    73    87    89   ar
    74   109   107   ar
    75    20    19    2
    76   103   102    2
    77    19    18    1
    78   105   107   ar
    79   105   104    1
    80   102   101    1
    81    89    91   ar
    82    88    90   ar
    83     6     5    1
    84     7     5    1
    85   104   101    1
    86    18    17    1
    87    18    21    1
    88     5     2    1
    89    16    13    1
    90   101   100    1
    91    17    14   am
    92    91    90   ar
    93    15    14    2
    94    14    13    1
    95    21    22    1
    96    13    12    1
    97     2     3    1
    98     2     1    1
    99     8     3   am
   100     8     9    1
   101     3     4    2
   102     9    10    1
   103    10    11    2
