@<TRIPOS>MOLECULE
tmp/2vnmA01.pdb
 86 81 0 0 0
SMALL
GASTEIGER

@<TRIPOS>ATOM
      1  N         18.1240   -0.7580    8.2420 N.3    22  SER22      -0.1217
      2  CA        17.0420   -1.2140    7.4030 C.3    22  SER22       0.1889
      3  C         17.6960   -1.9050    6.2190 C.2    22  SER22       0.2288
      4  O         18.4650   -1.2610    5.5070 O.2    22  SER22      -0.2866
      5  CB        16.1900   -0.0210    6.9610 C.3    22  SER22       0.2089
      6  OG        14.9300   -0.4700    6.4440 O.3    22  SER22      -0.2183
      7  N         20.4360    0.3650    4.2110 N.3    58  SER58      -0.1202
      8  CA        20.0640    1.3520    3.1930 C.3    58  SER58       0.2020
      9  C         19.8230    2.7370    3.7750 C.2    58  SER58       0.2619
     10  O         19.9670    3.7350    3.0840 O.2    58  SER58      -0.2717
     11  CB        18.8150    0.8730    2.4150 C.3    58  SER58       0.2103
     12  OG        17.5820    1.2470    3.0450 O.3    58  SER58      -0.2182
     13  N         19.4940    2.7850    5.0630 N.am   59  THR59      -0.1952
     14  CA        19.0560    4.0030    5.7290 C.3    59  THR59       0.1897
     15  C         20.1640    4.6450    6.5680 C.2    59  THR59       0.2313
     16  O         19.9740    5.7260    7.1300 O.2    59  THR59      -0.2863
     17  CB        17.8500    3.7120    6.6430 C.3    59  THR59       0.1794
     18  OG1       18.0820    2.4860    7.3450 O.3    59  THR59      -0.2208
     19  CG2       16.5460    3.5760    5.8320 C.3    59  THR59       0.0378
     20  N         17.7960    3.9310   11.4680 N.3    84  LEU84      -0.1245
     21  CA        16.5320    3.5820   12.1010 C.3    84  LEU84       0.1561
     22  C         16.7710    2.5760   13.2090 C.2    84  LEU84       0.2260
     23  O         17.5330    1.6350   13.0460 O.2    84  LEU84      -0.2867
     24  CB        15.5670    2.9930   11.0760 C.3    84  LEU84       0.0270
     25  CG        15.2370    3.8360    9.8370 C.3    84  LEU84       0.0019
     26  CD1       14.1520    3.1040    9.0810 C.3    84  LEU84       0.0001
     27  CD2       14.7600    5.2410   10.1910 C.3    84  LEU84       0.0001
     28  N          5.6010   -0.2280   19.7160 N.3    92  GLN92      -0.1231
     29  CA         5.6800   -0.5230   18.2940 C.3    92  GLN92       0.1698
     30  C          6.0220    0.7690   17.5670 C.2    92  GLN92       0.2592
     31  O          5.2280    1.3490   16.8110 O.2    92  GLN92      -0.2718
     32  CB         4.4020   -1.2080   17.8000 C.3    92  GLN92       0.0381
     33  CG         4.2290   -2.6180   18.3980 C.3    92  GLN92       0.0905
     34  CD         2.9460   -3.3090   17.9510 C.2    92  GLN92       0.2608
     35  OE1        1.8380   -2.8240   18.2110 O.2    92  GLN92      -0.2717
     36  NE2        3.0910   -4.4510   17.2710 N.am   92  GLN92      -0.0878
     37  N          7.2310    1.2300   17.8670 N.am   93  VAL93      -0.1966
     38  CA         7.7760    2.4410   17.3090 C.3    93  VAL93       0.1727
     39  C          9.1960    2.1910   16.8190 C.2    93  VAL93       0.2617
     40  O          9.9380    1.3250   17.3120 O.2    93  VAL93      -0.2715
     41  CB         7.7510    3.6420   18.3000 C.3    93  VAL93       0.0290
     42  CG1        6.3220    4.1370   18.5260 C.3    93  VAL93       0.0023
     43  CG2        8.4310    3.2910   19.6130 C.3    93  VAL93       0.0023
     44  N          9.5320    2.9740   15.8190 N.am   94  THR94      -0.1937
     45  CA        10.8050    2.9500   15.1660 C.3    94  THR94       0.2028
     46  C         11.1280    4.4220   15.0470 C.2    94  THR94       0.2642
     47  O         10.2370    5.2340   14.7950 O.2    94  THR94      -0.2714
     48  CB        10.6420    2.3330   13.7820 C.3    94  THR94       0.1808
     49  OG1       10.2580    0.9590   13.9410 O.3    94  THR94      -0.2208
     50  CG2       11.9300    2.4270   12.9700 C.3    94  THR94       0.0379
     51  N         12.3860    4.7700   15.2650 N.am   95  VAL95      -0.1963
     52  CA        12.8040    6.1670   15.1900 C.3    95  VAL95       0.1727
     53  C         14.1410    6.2560   14.4880 C.2    95  VAL95       0.2616
     54  O         14.8980    5.2950   14.4990 O.2    95  VAL95      -0.2715
     55  CB        12.9200    6.8060   16.5880 C.3    95  VAL95       0.0290
     56  CG1       11.5140    7.1220   17.1420 C.3    95  VAL95       0.0023
     57  CG2       13.6700    5.9170   17.5350 C.3    95  VAL95       0.0023
     58  N         14.4270    7.3990   13.8670 N.am   96  ARG96      -0.1977
     59  CA        15.7700    7.6200   13.3420 C.3    96  ARG96       0.1597
     60  C         16.5560    8.2710   14.4770 C.2    96  ARG96       0.2287
     61  O         16.1160    9.2800   15.0560 O.2    96  ARG96      -0.2864
     62  CB        15.7740    8.5120   12.1040 C.3    96  ARG96       0.0334
     63  CG        17.1800    8.7370   11.5940 C.3    96  ARG96       0.0492
     64  CD        17.2370    9.4680   10.2470 C.3    96  ARG96       0.2205
     65  NE        17.0820    8.5770    9.1110 N.pl3  96  ARG96      -0.0865
     66  CZ        18.0670    7.9250    8.4880 C.cat  96  ARG96       0.5346
     67  NH1       19.3450    8.0180    8.8690 N.pl3  96  ARG96       0.1354
     68  NH2       17.7560    7.1540    7.4640 N.pl3  96  ARG96       0.1354
     69  N         10.2790   12.9460   20.6050 N.3   142  LYS142     -0.1231
     70  CA        10.0530   13.9310   19.5370 C.3   142  LYS142      0.1693
     71  C          9.3560   13.3410   18.3030 C.2   142  LYS142      0.2591
     72  O          8.4720   13.9820   17.7020 O.2   142  LYS142     -0.2718
     73  CB        11.3790   14.5480   19.1160 C.3   142  LYS142      0.0285
     74  CG        11.8730   15.6380   20.0310 C.3   142  LYS142      0.0035
     75  CD        13.1150   16.2830   19.4250 C.3   142  LYS142      0.0206
     76  CE        13.7060   17.2710   20.3870 C.3   142  LYS142      0.1093
     77  NZ        14.7010   18.1470   19.7020 N.3   142  LYS142     -0.1314
     78  N          9.7570   12.1340   17.9150 N.am  143  GLN143     -0.1979
     79  CA         9.3020   11.5370   16.6560 C.3   143  GLN143      0.1601
     80  C          8.0160   10.7280   16.7530 C.2   143  GLN143      0.2287
     81  O          7.3570   10.4600   15.7390 O.2   143  GLN143     -0.2864
     82  CB        10.4110   10.6470   16.0980 C.3   143  GLN143      0.0394
     83  CG        11.5540   11.4410   15.4880 C.3   143  GLN143      0.0908
     84  CD        12.6800   10.5550   14.9970 C.2   143  GLN143      0.2608
     85  OE1       12.4510    9.4840   14.4220 O.2   143  GLN143     -0.2717
     86  NE2       13.9010   11.0020   15.2100 N.am  143  GLN143     -0.0878
@<TRIPOS>BOND
     1    11    12    1
     2    11     8    1
     3    10     9    2
     4     8     9    1
     5     8     7    1
     6     9    13   am
     7    13    14    1
     8     4     3    2
     9    14    15    1
    10    14    17    1
    11    19    17    1
    12     3     2    1
    13     6     5    1
    14    15    16    2
    15    17    18    1
    16     5     2    1
    17     2     1    1
    18    68    66    1
    19    66    67    1
    20    66    65    2
    21    26    25    1
    22    65    64    1
    23    25    27    1
    24    25    24    1
    25    64    63    1
    26    24    21    1
    27    20    21    1
    28    63    62    1
    29    21    22    1
    30    62    59    1
    31    50    48    1
    32    23    22    2
    33    59    58    1
    34    59    60    1
    35    48    49    1
    36    48    45    1
    37    58    53   am
    38    85    84    2
    39    60    61    2
    40    53    54    2
    41    53    52    1
    42    47    46    2
    43    84    86   am
    44    84    83    1
    45    46    45    1
    46    46    51   am
    47    45    44    1
    48    52    51    1
    49    52    55    1
    50    83    82    1
    51    81    80    2
    52    44    39   am
    53    82    79    1
    54    55    56    1
    55    55    57    1
    56    79    80    1
    57    79    78    1
    58    31    30    2
    59    39    38    1
    60    39    40    2
    61    36    34   am
    62    38    37    1
    63    38    41    1
    64    30    37   am
    65    30    29    1
    66    72    71    2
    67    32    29    1
    68    32    33    1
    69    78    71   am
    70    34    35    2
    71    34    33    1
    72    29    28    1
    73    41    42    1
    74    41    43    1
    75    71    70    1
    76    73    70    1
    77    73    74    1
    78    75    74    1
    79    75    76    1
    80    70    69    1
    81    77    76    1
