@<TRIPOS>MOLECULE
tmp/2vnoB00.pdb
 89 85 0 0 0
SMALL
GASTEIGER

@<TRIPOS>ATOM
      1  N         41.3470    7.6320   21.4160 N.3    18  GLY18      -0.1210
      2  CA        42.1150    7.2730   22.5920 C.3    18  GLY18       0.1956
      3  C         41.4130    7.5690   23.9230 C.2    18  GLY18       0.2612
      4  O         42.0470    7.4260   24.9860 O.2    18  GLY18      -0.2717
      5  N         40.1190    7.8940   23.9090 N.am   19  ASP19      -0.1959
      6  CA        39.4150    8.1300   25.1650 C.3    19  ASP19       0.1840
      7  C         39.2070    6.7720   25.8270 C.2    19  ASP19       0.2622
      8  O         38.9410    5.7610   25.1470 O.2    19  ASP19      -0.2715
      9  CB        38.0980    8.7980   24.9250 C.3    19  ASP19       0.1450
     10  CG        37.5370    9.4500   26.2000 C.2    19  ASP19       0.3671
     11  OD1       37.7090   10.6970   26.3510 O.co2  19  ASP19      -0.2456
     12  OD2       36.9220    8.7080   26.9880 O.co2  19  ASP19      -0.2456
     13  N         39.2760    6.7670   27.1510 N.am   20  ASP20      -0.1971
     14  CA        39.0890    5.5150   27.8680 C.3    20  ASP20       0.1709
     15  C         37.6670    4.9710   27.8220 C.2    20  ASP20       0.2293
     16  O         37.4440    3.7340   28.0300 O.2    20  ASP20      -0.2864
     17  CB        39.5210    5.6980   29.3170 C.3    20  ASP20       0.1436
     18  CG        40.9780    5.9990   29.4190 C.2    20  ASP20       0.3671
     19  OD1       41.7550    5.2370   28.8040 O.co2  20  ASP20      -0.2456
     20  OD2       41.3320    7.0120   30.0580 O.co2  20  ASP20      -0.2456
     21  N         35.3030   15.8640   23.3360 N.3    33  THR33      -0.1218
     22  CA        34.7020   15.8470   24.6940 C.3    33  THR33       0.1862
     23  C         33.3670   16.5980   24.7720 C.2    33  THR33       0.2287
     24  O         32.3290   16.0220   25.2000 O.2    33  THR33      -0.2866
     25  CB        35.7310   16.2410   25.8230 C.3    33  THR33       0.1770
     26  OG1       36.7290   15.2360   25.8110 O.3    33  THR33      -0.2211
     27  CG2       35.0760   16.3010   27.2190 C.3    33  THR33       0.0375
     28  N         40.0110   11.9390   19.9070 N.3    62  ILE62      -0.1245
     29  CA        41.1110   11.9300   20.9030 C.3    62  ILE62       0.1561
     30  C         42.2430   11.1040   20.2790 C.2    62  ILE62       0.2260
     31  O         42.0090    9.9670   19.8060 O.2    62  ILE62      -0.2867
     32  CB        40.7380   11.2550   22.2310 C.3    62  ILE62       0.0252
     33  CG1       39.5330   11.9570   22.8060 C.3    62  ILE62       0.0019
     34  CG2       41.9370   11.1930   23.2130 C.3    62  ILE62       0.0019
     35  CD1       39.7390   13.3930   23.2450 C.3    62  ILE62       0.0001
     36  N         42.0060   21.4480   27.7040 N.3    92  ASN92      -0.1240
     37  CA        42.4760   22.1550   28.8940 C.3    92  ASN92       0.1653
     38  C         43.8970   21.7640   29.2480 C.2    92  ASN92       0.2266
     39  O         44.1700   20.6010   29.6470 O.2    92  ASN92      -0.2867
     40  CB        41.5320   21.8260   30.0150 C.3    92  ASN92       0.1155
     41  CG        41.7850   22.6350   31.2390 C.2    92  ASN92       0.2627
     42  OD1       42.4140   23.7140   31.2140 O.2    92  ASN92      -0.2716
     43  ND2       41.2280   22.1380   32.3190 N.am   92  ASN92      -0.0877
     44  N         49.3310   17.1910   29.3270 N.3    98  TYR98      -0.1241
     45  CA        48.0740   17.3340   28.5360 C.3    98  TYR98       0.1605
     46  C         48.2840   18.0270   27.1650 C.2    98  TYR98       0.2264
     47  O         49.0970   18.9230   27.0430 O.2    98  TYR98      -0.2867
     48  CB        47.0460   18.1940   29.2790 C.3    98  TYR98       0.0534
     49  CG        46.3240   17.4830   30.3980 C.ar   98  TYR98      -0.0201
     50  CD1       44.9520   17.2690   30.3390 C.ar   98  TYR98      -0.0009
     51  CD2       47.0260   16.9310   31.4640 C.ar   98  TYR98      -0.0009
     52  CE1       44.2300   16.6280   31.3400 C.ar   98  TYR98       0.0417
     53  CE2       46.3290   16.2500   32.4640 C.ar   98  TYR98       0.0417
     54  CZ        44.9440   16.0910   32.3970 C.ar   98  TYR98       0.1957
     55  OH        44.3260   15.3620   33.4480 O.3    98  TYR98      -0.2866
     56  N         46.9150   10.0730   26.5430 N.3   154  THR154     -0.1203
     57  CA        45.8710   10.6710   25.6440 C.3   154  THR154      0.1994
     58  C         45.2860   11.9630   26.1770 C.2   154  THR154      0.2618
     59  O         44.4210   12.5730   25.5300 O.2   154  THR154     -0.2717
     60  CB        44.7190    9.6770   25.4010 C.3   154  THR154      0.1784
     61  OG1       44.0130    9.4440   26.6460 O.3   154  THR154     -0.2211
     62  CG2       45.3010    8.3480   24.9170 C.3   154  THR154      0.0376
     63  N         45.7140   12.3790   27.3740 N.am  155  TRP155     -0.1961
     64  CA        45.0100   13.4270   28.1070 C.3   155  TRP155      0.1771
     65  C         45.0010   14.7540   27.3290 C.2   155  TRP155      0.2620
     66  O         46.0510   15.2540   26.9800 O.2   155  TRP155     -0.2715
     67  CB        45.7340   13.6250   29.4120 C.3   155  TRP155      0.0590
     68  CG        45.7120   12.4210   30.2750 C.ar  155  TRP155      0.0006
     69  CD1       44.9430   11.2900   30.1240 C.ar  155  TRP155      0.0946
     70  CD2       46.4850   12.2370   31.4500 C.ar  155  TRP155      0.0152
     71  NE1       45.1960   10.4010   31.1710 N.ar  155  TRP155     -0.2442
     72  CE2       46.1510   10.9630   31.9830 C.ar  155  TRP155      0.0810
     73  CE3       47.4340   13.0210   32.0940 C.ar  155  TRP155      0.0012
     74  CZ2       46.7330   10.4680   33.1500 C.ar  155  TRP155      0.0191
     75  CZ3       48.0030   12.5390   33.2820 C.ar  155  TRP155      0.0001
     76  CH2       47.6550   11.2720   33.7820 C.ar  155  TRP155      0.0015
     77  N         43.8040   15.3050   27.1550 N.am  156  GLY156     -0.1954
     78  CA        43.6350   16.5820   26.4810 C.3   156  GLY156      0.1869
     79  C         43.9770   16.5600   24.9960 C.2   156  GLY156      0.2309
     80  O         44.0550   17.6370   24.3740 O.2   156  GLY156     -0.2863
     81  N         42.6540   16.5880   22.1680 N.3   158  GLU158     -0.1245
     82  CA        41.3930   16.8670   21.4420 C.3   158  GLU158      0.1567
     83  C         41.7380   17.2830   20.0280 C.2   158  GLU158      0.2260
     84  O         41.6690   18.4730   19.6880 O.2   158  GLU158     -0.2867
     85  CB        40.6000   17.9690   22.1910 C.3   158  GLU158      0.0388
     86  CG        40.3110   17.5720   23.6310 C.3   158  GLU158      0.1160
     87  CD        39.0350   16.7480   23.7870 C.2   158  GLU158      0.3649
     88  OE1       38.1800   16.7680   22.8420 O.co2 158  GLU158     -0.2457
     89  OE2       38.9320   16.0970   24.8770 O.co2 158  GLU158     -0.2457
@<TRIPOS>BOND
     1    84    83    2
     2    31    30    2
     3    28    29    1
     4    83    82    1
     5    30    29    1
     6    29    32    1
     7     1     2    1
     8    82    81    1
     9    82    85    1
    10    85    86    1
    11    32    33    1
    12    32    34    1
    13     2     3    1
    14    33    35    1
    15    88    87   ar
    16    21    22    1
    17    86    87    1
    18    87    89   ar
    19     5     3   am
    20     5     6    1
    21     3     4    2
    22    80    79    2
    23    22    23    1
    24    22    25    1
    25    23    24    2
    26    62    60    1
    27     9     6    1
    28     9    10    1
    29    79    78    1
    30     8     7    2
    31     6     7    1
    32    60    57    1
    33    60    61    1
    34    59    58    2
    35    57    58    1
    36    57    56    1
    37    26    25    1
    38    25    27    1
    39     7    13   am
    40    58    63   am
    41    10    11   ar
    42    10    12   ar
    43    78    77    1
    44    66    65    2
    45    47    46    2
    46    13    14    1
    47    77    65   am
    48    46    45    1
    49    65    64    1
    50    63    64    1
    51    36    37    1
    52    15    14    1
    53    15    16    2
    54    14    17    1
    55    64    67    1
    56    45    48    1
    57    45    44    1
    58    19    18   ar
    59    37    38    1
    60    37    40    1
    61    38    39    2
    62    48    49    1
    63    17    18    1
    64    67    68    1
    65    18    20   ar
    66    40    41    1
    67    69    68   ar
    68    69    71   ar
    69    68    70   ar
    70    50    49   ar
    71    50    52   ar
    72    49    51   ar
    73    71    72   ar
    74    42    41    2
    75    41    43   am
    76    52    54   ar
    77    70    72   ar
    78    70    73   ar
    79    51    53   ar
    80    72    74   ar
    81    73    75   ar
    82    54    53   ar
    83    54    55    1
    84    74    76   ar
    85    75    76   ar
