@<TRIPOS>MOLECULE
tmp/2vnoA00.pdb
 101 96 0 0 0
SMALL
GASTEIGER

@<TRIPOS>ATOM
      1  N         12.2550    4.2850    0.5130 N.3    18  ASP18      -0.1225
      2  CA        12.9580    4.5690   -0.7440 C.3    18  ASP18       0.1805
      3  C         13.1830    3.2210   -1.4260 C.2    18  ASP18       0.2598
      4  O         13.4190    2.1850   -0.7190 O.2    18  ASP18      -0.2718
      5  CB        14.2860    5.2740   -0.4980 C.3    18  ASP18       0.1424
      6  CG        14.8610    5.9300   -1.7730 C.2    18  ASP18       0.3668
      7  OD1       14.7220    7.1890   -1.9240 O.co2  18  ASP18      -0.2456
      8  OD2       15.4260    5.1800   -2.6260 O.co2  18  ASP18      -0.2456
      9  N         13.1860    3.2330   -2.7670 N.am   19  ASP19      -0.1960
     10  CA        13.3460    1.9460   -3.4770 C.3    19  ASP19       0.1840
     11  C         14.7850    1.4220   -3.3610 C.2    19  ASP19       0.2622
     12  O         15.0340    0.2150   -3.4890 O.2    19  ASP19      -0.2715
     13  CB        12.9710    2.0610   -4.9430 C.3    19  ASP19       0.1450
     14  CG        11.5460    2.5550   -5.1410 C.2    19  ASP19       0.3671
     15  OD1       10.6410    1.9240   -4.5570 O.co2  19  ASP19      -0.2456
     16  OD2       11.3520    3.5970   -5.8590 O.co2  19  ASP19      -0.2456
     17  N         15.7350    2.3390   -3.1960 N.am   20  THR20      -0.1951
     18  CA        17.1620    1.9920   -3.1620 C.3    20  THR20       0.1897
     19  C         17.5200    1.6470   -1.7030 C.2    20  THR20       0.2313
     20  O         17.6360    2.5070   -0.8660 O.2    20  THR20      -0.2863
     21  CB        18.0500    3.1300   -3.7660 C.3    20  THR20       0.1794
     22  OG1       17.5550    3.4730   -5.0720 O.3    20  THR20      -0.2208
     23  CG2       19.5620    2.7390   -3.8250 C.3    20  THR20       0.0378
     24  N         20.5410    3.0880    0.2050 N.3    23  LYS23      -0.1245
     25  CA        20.4110    4.3680    0.9190 C.3    23  LYS23       0.1561
     26  C         20.0110    4.0710    2.3670 C.2    23  LYS23       0.2260
     27  O         19.3310    3.0540    2.6290 O.2    23  LYS23      -0.2867
     28  CB        19.3690    5.2470    0.2000 C.3    23  LYS23       0.0271
     29  CG        19.8390    5.6470   -1.1760 C.3    23  LYS23       0.0035
     30  CD        18.9450    6.6180   -1.8560 C.3    23  LYS23       0.0206
     31  CE        19.4880    7.0120   -3.2550 C.3    23  LYS23       0.1093
     32  NZ        18.5210    7.9280   -3.9800 N.3    23  LYS23      -0.1314
     33  N         17.2010   12.3590    1.1670 N.3    32  THR32      -0.1218
     34  CA        17.7970   12.3580   -0.1630 C.3    32  THR32       0.1862
     35  C         19.1490   13.1160   -0.2160 C.2    32  THR32       0.2287
     36  O         20.1600   12.5790   -0.6840 O.2    32  THR32      -0.2866
     37  CB        16.7370   12.7690   -1.2480 C.3    32  THR32       0.1770
     38  OG1       15.7730   11.7060   -1.3380 O.3    32  THR32      -0.2211
     39  CG2       17.3210   12.9370   -2.5860 C.3    32  THR32       0.0375
     40  N         12.4290    8.2480    4.6190 N.3    61  ILE61      -0.1245
     41  CA        11.3680    8.2890    3.6300 C.3    61  ILE61       0.1561
     42  C         10.2480    7.4360    4.2240 C.2    61  ILE61       0.2260
     43  O         10.4720    6.3210    4.7160 O.2    61  ILE61      -0.2867
     44  CB        11.7380    7.6570    2.2830 C.3    61  ILE61       0.0252
     45  CG1       12.9040    8.4030    1.6560 C.3    61  ILE61       0.0019
     46  CG2       10.4780    7.6520    1.3570 C.3    61  ILE61       0.0019
     47  CD1       12.6030    9.8780    1.1970 C.3    61  ILE61       0.0001
     48  N         10.2760   17.8190   -3.1330 N.3    91  ASN91      -0.1240
     49  CA         9.7860   18.4490   -4.3500 C.3    91  ASN91       0.1653
     50  C          8.3150   18.0830   -4.6040 C.2    91  ASN91       0.2266
     51  O          8.0300   16.9990   -5.0270 O.2    91  ASN91      -0.2867
     52  CB        10.6610   18.0080   -5.5350 C.3    91  ASN91       0.1155
     53  CG        10.5470   18.9610   -6.7660 C.2    91  ASN91       0.2627
     54  OD1        9.9100   19.9840   -6.7350 O.2    91  ASN91      -0.2716
     55  ND2       11.1810   18.5410   -7.8660 N.am   91  ASN91      -0.0877
     56  N          2.8550   13.6240   -4.5520 N.3    97  TYR97      -0.1241
     57  CA         4.1650   13.7350   -3.9010 C.3    97  TYR97       0.1605
     58  C          4.0070   14.3990   -2.5060 C.2    97  TYR97       0.2264
     59  O          3.1860   15.2890   -2.3180 O.2    97  TYR97      -0.2867
     60  CB         5.1080   14.5700   -4.7540 C.3    97  TYR97       0.0534
     61  CG         5.8110   13.7970   -5.8450 C.ar   97  TYR97      -0.0201
     62  CD1        7.2030   13.6140   -5.8290 C.ar   97  TYR97      -0.0009
     63  CD2        5.0920   13.2600   -6.8920 C.ar   97  TYR97      -0.0009
     64  CE1        7.8640   12.9130   -6.8340 C.ar   97  TYR97       0.0417
     65  CE2        5.7310   12.5890   -7.9140 C.ar   97  TYR97       0.0417
     66  CZ         7.0950   12.3920   -7.8780 C.ar   97  TYR97       0.1957
     67  OH         7.7110   11.6920   -8.9240 O.3    97  TYR97      -0.2866
     68  N          5.4170    6.4660   -1.9630 N.3   153  THR153     -0.1203
     69  CA         6.4600    7.0080   -1.0780 C.3   153  THR153      0.1994
     70  C          7.0680    8.3210   -1.6420 C.2   153  THR153      0.2618
     71  O          7.9250    8.9530   -0.9930 O.2   153  THR153     -0.2717
     72  CB         7.5800    6.0040   -0.8580 C.3   153  THR153      0.1784
     73  OG1        8.2900    5.7890   -2.1030 O.3   153  THR153     -0.2211
     74  CG2        7.0530    4.6950   -0.2180 C.3   153  THR153      0.0376
     75  N          6.6200    8.7150   -2.8480 N.am  154  TRP154     -0.1961
     76  CA         7.2950    9.7740   -3.5780 C.3   154  TRP154      0.1771
     77  C          7.3210   11.1020   -2.7620 C.2   154  TRP154      0.2620
     78  O          6.2740   11.5490   -2.3440 O.2   154  TRP154     -0.2715
     79  CB         6.5560   10.0310   -4.8800 C.3   154  TRP154      0.0590
     80  CG         6.4830    8.8020   -5.7470 C.ar  154  TRP154      0.0006
     81  CD1        7.2490    7.6670   -5.6580 C.ar  154  TRP154      0.0946
     82  CD2        5.5640    8.6090   -6.8220 C.ar  154  TRP154      0.0152
     83  NE1        6.8640    6.7680   -6.6650 N.ar  154  TRP154     -0.2442
     84  CE2        5.8040    7.3110   -7.3530 C.ar  154  TRP154      0.0810
     85  CE3        4.5230    9.3900   -7.3470 C.ar  154  TRP154      0.0012
     86  CZ2        5.0700    6.8130   -8.4270 C.ar  154  TRP154      0.0191
     87  CZ3        3.7660    8.8730   -8.3840 C.ar  154  TRP154      0.0001
     88  CH2        4.0400    7.6020   -8.9020 C.ar  154  TRP154      0.0015
     89  N          8.5070   11.6810   -2.6050 N.am  155  GLY155     -0.1954
     90  CA         8.6340   12.9590   -1.9320 C.3   155  GLY155      0.1869
     91  C          8.3270   12.9060   -0.4540 C.2   155  GLY155      0.2309
     92  O          8.2670   13.9710    0.1940 O.2   155  GLY155     -0.2863
     93  N          9.7320   12.9170    2.3630 N.3   157  GLU157     -0.1245
     94  CA        10.9620   13.2040    3.0810 C.3   157  GLU157      0.1567
     95  C         10.6650   13.6250    4.5180 C.2   157  GLU157      0.2260
     96  O         10.7150   14.8120    4.8460 O.2   157  GLU157     -0.2867
     97  CB        11.7380   14.3260    2.3500 C.3   157  GLU157      0.0388
     98  CG        12.0900   13.9780    0.8870 C.3   157  GLU157      0.1160
     99  CD        13.4340   13.2110    0.6920 C.2   157  GLU157      0.3649
    100  OE1       14.2770   13.2030    1.6290 O.co2 157  GLU157     -0.2457
    101  OE2       13.5860   12.5730   -0.3790 O.co2 157  GLU157     -0.2457
@<TRIPOS>BOND
     1    67    66    1
     2    88    86   ar
     3    88    87   ar
     4    86    84   ar
     5    87    85   ar
     6    65    66   ar
     7    65    63   ar
     8    66    64   ar
     9    55    53   am
    10    84    82   ar
    11    84    83   ar
    12    85    82   ar
    13    63    61   ar
    14    64    62   ar
    15    82    80   ar
    16    53    54    2
    17    53    52    1
    18    83    81   ar
    19    16    14   ar
    20    61    62   ar
    21    61    60    1
    22    80    81   ar
    23    80    79    1
    24    52    49    1
    25    14    13    1
    26    14    15   ar
    27    22    21    1
    28    51    50    2
    29    13    10    1
    30    79    76    1
    31    60    57    1
    32    50    49    1
    33    56    57    1
    34    49    48    1
    35    32    31    1
    36    57    58    1
    37    23    21    1
    38    21    18    1
    39    76    75    1
    40    76    77    1
    41    12    11    2
    42    10    11    1
    43    10     9    1
    44    11    17   am
    45    31    30    1
    46    17    18    1
    47    18    19    1
    48    75    70   am
    49     9     3   am
    50    77    89   am
    51    77    78    2
    52     8     6   ar
    53    89    90    1
    54    39    37    1
    55    58    59    2
    56    73    72    1
    57    68    69    1
    58    90    91    1
    59     7     6   ar
    60    30    29    1
    61     6     5    1
    62    19    20    2
    63    70    69    1
    64    70    71    2
    65     3     2    1
    66     3     4    2
    67    38    37    1
    68    37    34    1
    69    29    28    1
    70    69    72    1
    71    72    74    1
    72     2     5    1
    73     2     1    1
    74    36    35    2
    75    91    92    2
    76   101    99   ar
    77    35    34    1
    78    34    33    1
    79    28    25    1
    80    24    25    1
    81    99    98    1
    82    99   100   ar
    83    98    97    1
    84    25    26    1
    85    47    45    1
    86    46    44    1
    87    45    44    1
    88    44    41    1
    89    97    94    1
    90    93    94    1
    91    26    27    2
    92    94    95    1
    93    41    42    1
    94    41    40    1
    95    42    43    2
    96    95    96    2
