@<TRIPOS>MOLECULE
tmp/2vntB00.pdb
 164 162 0 0 0
SMALL
GASTEIGER

@<TRIPOS>ATOM
      1  N         -4.2170  120.7470   75.4040 N.3    56  HIS56      -0.1241
      2  CA        -5.4890  120.6980   76.1390 C.3    56  HIS56       0.1621
      3  C         -6.4680  121.8030   75.6990 C.2    56  HIS56       0.2264
      4  O         -7.6870  121.5830   75.6620 O.2    56  HIS56      -0.2867
      5  CB        -5.1630  120.7340   77.6450 C.3    56  HIS56       0.0745
      6  CG        -6.3310  120.9540   78.5670 C.ar   56  HIS56       0.0817
      7  ND1       -6.5220  122.1380   79.2550 N.ar   56  HIS56      -0.2268
      8  CD2       -7.3110  120.1160   78.9940 C.ar   56  HIS56       0.1154
      9  CE1       -7.5850  122.0300   80.0390 C.ar   56  HIS56       0.1986
     10  NE2       -8.0850  120.8140   79.9000 N.ar   56  HIS56      -0.2212
     11  N         -7.9140  113.4150   86.3980 N.3   101  THR101     -0.1203
     12  CA        -8.7500  114.4190   87.0420 C.3   101  THR101      0.1994
     13  C         -8.0190  115.7650   87.1910 C.2   101  THR101      0.2617
     14  O         -8.6450  116.8330   87.1390 O.2   101  THR101     -0.2717
     15  CB        -9.3070  113.9300   88.4260 C.3   101  THR101      0.1784
     16  OG1       -8.2770  113.9300   89.4190 O.3   101  THR101     -0.2211
     17  CG2       -9.9170  112.5180   88.3270 C.3   101  THR101      0.0376
     18  N         -6.7010  115.6920   87.3710 N.am  102  LEU102     -0.1979
     19  CA        -5.8610  116.8380   87.6900 C.3   102  LEU102      0.1596
     20  C         -4.4180  116.6190   87.2770 C.2   102  LEU102      0.2287
     21  O         -3.5270  116.5920   88.1320 O.2   102  LEU102     -0.2864
     22  CB        -5.8740  117.0890   89.2020 C.3   102  LEU102      0.0297
     23  CG        -4.8000  118.0890   89.6370 C.3   102  LEU102      0.0022
     24  CD1       -5.3490  119.4850   89.4870 C.3   102  LEU102      0.0001
     25  CD2       -4.2400  117.8260   91.0410 C.3   102  LEU102      0.0001
     26  N         -1.8610  116.9320   83.3470 N.3   104  HIS104     -0.1241
     27  CA        -1.8550  116.9370   81.8880 C.3   104  HIS104      0.1621
     28  C         -0.4470  116.5650   81.4320 C.2   104  HIS104      0.2264
     29  O          0.5050  117.3350   81.6380 O.2   104  HIS104     -0.2867
     30  CB        -2.2760  118.3160   81.3250 C.3   104  HIS104      0.0745
     31  CG        -3.6230  118.8150   81.7880 C.ar  104  HIS104      0.0817
     32  ND1       -4.4440  119.5710   80.9790 N.ar  104  HIS104     -0.2268
     33  CD2       -4.2680  118.7190   82.9800 C.ar  104  HIS104      0.1154
     34  CE1       -5.5410  119.8990   81.6440 C.ar  104  HIS104      0.1986
     35  NE2       -5.4620  119.4000   82.8610 N.ar  104  HIS104     -0.2212
     36  N         -9.8410  132.2440   91.1110 N.3   155  SER155     -0.1217
     37  CA       -10.5860  131.0830   90.5850 C.3   155  SER155      0.1889
     38  C        -12.1010  131.3220   90.6770 C.2   155  SER155      0.2288
     39  O        -12.8600  130.8200   89.8500 O.2   155  SER155     -0.2866
     40  CB       -10.1560  129.7290   91.1890 C.3   155  SER155      0.2089
     41  OG        -9.1980  129.8780   92.2170 O.3   155  SER155     -0.2183
     42  N          0.3230  133.0610   90.9260 N.3   202  ASP202     -0.1225
     43  CA         0.3520  131.7990   90.1900 C.3   202  ASP202      0.1805
     44  C         -0.4150  131.9620   88.8770 C.2   202  ASP202      0.2598
     45  O         -1.1310  132.9230   88.6980 O.2   202  ASP202     -0.2718
     46  CB        -0.3110  130.7080   91.0530 C.3   202  ASP202      0.1424
     47  CG         0.0960  129.2830   90.6770 C.2   202  ASP202      0.3668
     48  OD1        0.9560  129.0610   89.8060 O.co2 202  ASP202     -0.2456
     49  OD2       -0.4870  128.3600   91.2710 O.co2 202  ASP202     -0.2456
     50  N         -0.2450  131.0310   87.9520 N.am  203  SER203     -0.1938
     51  CA        -1.0980  130.9310   86.7700 C.3   203  SER203      0.2055
     52  C         -2.5090  130.4140   87.1450 C.2   203  SER203      0.2643
     53  O         -2.7250  129.9580   88.2680 O.2   203  SER203     -0.2714
     54  CB        -0.4470  129.9970   85.7720 C.3   203  SER203      0.2130
     55  OG        -0.2970  128.7030   86.3450 O.3   203  SER203     -0.2179
     56  N         -3.4670  130.5080   86.2190 N.am  204  CYS204     -0.1953
     57  CA        -4.8580  130.0960   86.4890 C.3   204  CYS204      0.1843
     58  C         -5.5440  129.7200   85.2000 C.2   204  CYS204      0.2625
     59  O         -4.9280  129.7570   84.1460 O.2   204  CYS204     -0.2714
     60  CB        -5.6470  131.1970   87.2220 C.3   204  CYS204      0.0997
     61  SG        -7.0130  130.6420   88.3340 S.3   204  CYS204     -0.0797
     62  N         -6.8090  129.3140   85.3060 N.am  205  GLN205     -0.1963
     63  CA        -7.7140  129.1010   84.1750 C.3   205  GLN205      0.1733
     64  C         -7.5370  130.2540   83.2180 C.2   205  GLN205      0.2616
     65  O         -7.5730  131.3750   83.6510 O.2   205  GLN205     -0.2715
     66  CB        -9.1550  129.1540   84.7130 C.3   205  GLN205      0.0408
     67  CG       -10.1880  128.2900   84.0150 C.3   205  GLN205      0.0908
     68  CD       -10.5570  128.7590   82.6310 C.2   205  GLN205      0.2608
     69  OE1      -10.3110  128.0460   81.6370 O.2   205  GLN205     -0.2717
     70  NE2      -11.1750  129.9520   82.5390 N.am  205  GLN205     -0.0878
     71  N         -7.3600  129.9820   81.9290 N.am  206  GLY206     -0.1955
     72  CA        -7.1340  131.0310   80.9550 C.3   206  GLY206      0.1869
     73  C         -5.6910  131.2280   80.5080 C.2   206  GLY206      0.2309
     74  O         -5.4640  131.7590   79.4290 O.2   206  GLY206     -0.2863
     75  N         -3.2480  128.7490   80.2410 N.3   208  SER208     -0.1217
     76  CA        -2.7250  127.5740   79.5850 C.3   208  SER208      0.1889
     77  C         -2.2330  127.9170   78.2570 C.2   208  SER208      0.2288
     78  O         -2.8150  128.7770   77.6000 O.2   208  SER208     -0.2866
     79  CB        -3.8290  126.5170   79.4490 C.3   208  SER208      0.2089
     80  OG        -4.2570  126.2700   80.7690 O.3   208  SER208     -0.2183
     81  N          2.2860  126.8090   80.3390 N.3   226  VAL226     -0.1231
     82  CA         1.2710  126.6430   81.3780 C.3   226  VAL226      0.1692
     83  C          0.4040  125.4060   81.0330 C.2   226  VAL226      0.2593
     84  O          0.0140  125.2180   79.8690 O.2   226  VAL226     -0.2718
     85  CB         0.3890  127.9110   81.5820 C.3   226  VAL226      0.0266
     86  CG1       -0.5620  127.7280   82.7860 C.3   226  VAL226      0.0020
     87  CG2        1.2470  129.1970   81.7590 C.3   226  VAL226      0.0020
     88  N          0.1140  124.5810   82.0420 N.am  227  SER227     -0.1938
     89  CA        -0.5040  123.2520   81.8650 C.3   227  SER227      0.2055
     90  C         -1.5620  123.0960   82.9200 C.2   227  SER227      0.2643
     91  O         -2.7400  123.1500   82.6300 O.2   227  SER227     -0.2714
     92  CB         0.5370  122.1330   82.0300 C.3   227  SER227      0.2130
     93  OG         0.2010  120.9710   81.2940 O.3   227  SER227     -0.2179
     94  N         -1.1670  122.9670   84.1740 N.am  228  TRP228     -0.1959
     95  CA        -2.1750  122.6950   85.1650 C.3   228  TRP228      0.1771
     96  C         -1.8120  123.0670   86.5620 C.2   228  TRP228      0.2620
     97  O         -0.7470  123.6190   86.8420 O.2   228  TRP228     -0.2715
     98  CB        -2.6090  121.2230   85.0990 C.3   228  TRP228      0.0590
     99  CG        -1.4840  120.2040   85.3080 C.ar  228  TRP228      0.0006
    100  CD1       -0.6170  119.7340   84.3740 C.ar  228  TRP228      0.0946
    101  CD2       -1.1550  119.5540   86.5260 C.ar  228  TRP228      0.0152
    102  NE1        0.2490  118.8300   84.9400 N.ar  228  TRP228     -0.2442
    103  CE2       -0.0800  118.6900   86.2630 C.ar  228  TRP228      0.0810
    104  CE3       -1.6710  119.6130   87.8240 C.ar  228  TRP228      0.0012
    105  CZ2        0.4920  117.8970   87.2500 C.ar  228  TRP228      0.0191
    106  CZ3       -1.1050  118.8070   88.8000 C.ar  228  TRP228      0.0001
    107  CH2       -0.0350  117.9710   88.5070 C.ar  228  TRP228      0.0015
    108  N         -2.7540  122.7850   87.4380 N.am  229  GLY229     -0.1940
    109  CA        -2.5830  123.0010   88.8500 C.3   229  GLY229      0.2014
    110  C         -3.9150  122.7280   89.4820 C.2   229  GLY229      0.2639
    111  O         -4.9450  122.7910   88.7980 O.2   229  GLY229     -0.2714
    112  N         -3.8810  122.3890   90.7670 N.am  230  ARG230     -0.1963
    113  CA        -5.0640  122.2790   91.6050 C.3   230  ARG230      0.1729
    114  C         -5.1900  123.5920   92.3260 C.2   230  ARG230      0.2617
    115  O         -4.2410  124.0340   92.9790 O.2   230  ARG230     -0.2715
    116  CB        -4.9370  121.1250   92.6110 C.3   230  ARG230      0.0348
    117  CG        -6.0690  121.0650   93.6900 C.3   230  ARG230      0.0492
    118  CD        -6.7320  119.6720   93.8180 C.3   230  ARG230      0.2205
    119  NE        -7.0730  119.0800   92.5140 N.pl3 230  ARG230     -0.0865
    120  CZ        -8.1790  119.3230   91.8110 C.cat 230  ARG230      0.5346
    121  NH1       -9.1190  120.1530   92.2640 N.pl3 230  ARG230      0.1354
    122  NH2       -8.3460  118.7270   90.6340 N.pl3 230  ARG230      0.1354
    123  N         -6.3580  124.2190   92.2030 N.am  231  GLY231     -0.1940
    124  CA        -6.5710  125.5610   92.7310 C.3   231  GLY231      0.2014
    125  C         -5.8750  126.6130   91.8830 C.2   231  GLY231      0.2639
    126  O         -5.4310  126.3350   90.7570 O.2   231  GLY231     -0.2714
    127  N         -5.7910  127.8300   92.4190 N.am  232  CYS232     -0.1953
    128  CA        -4.8750  128.8510   91.9040 C.3   232  CYS232      0.1843
    129  C         -4.2660  129.5370   93.0950 C.2   232  CYS232      0.2625
    130  O         -4.9940  130.0390   93.9410 O.2   232  CYS232     -0.2714
    131  CB        -5.5890  129.8480   90.9850 C.3   232  CYS232      0.0997
    132  SG        -6.1820  129.1160   89.4740 S.3   232  CYS232     -0.0797
    133  N         -2.9320  129.5270   93.1780 N.am  233  ALA233     -0.1977
    134  CA        -2.2010  130.1080   94.3100 C.3   233  ALA233      0.1597
    135  C         -2.6380  129.5740   95.6780 C.2   233  ALA233      0.2287
    136  O         -2.8570  130.3370   96.6270 O.2   233  ALA233     -0.2864
    137  CB        -2.2570  131.6440   94.2700 C.3   233  ALA233      0.0319
    138  N          0.4860  124.0270   96.8130 N.3   237  LYS237     -0.1231
    139  CA        -0.0270  123.5970   95.5070 C.3   237  LYS237      0.1678
    140  C          0.4540  124.5070   94.3650 C.2   237  LYS237      0.2434
    141  O         -0.2220  125.4940   94.0320 O.2   237  LYS237     -0.2733
    142  CB        -1.5650  123.4870   95.5360 C.3   237  LYS237      0.0284
    143  CG        -2.1390  122.4760   96.5760 C.3   237  LYS237      0.0035
    144  CD        -1.8930  121.0290   96.1410 C.3   237  LYS237      0.0206
    145  CE        -2.7650  120.0320   96.9070 C.3   237  LYS237      0.1093
    146  NZ        -2.9370  118.7370   96.1490 N.3   237  LYS237     -0.1314
    147  N          1.6430  124.1990   93.7860 N.am  238  PRO238     -0.2718
    148  CA         2.2900  124.9250   92.6810 C.3   238  PRO238      0.1535
    149  C          1.5840  124.8600   91.3210 C.2   238  PRO238      0.2599
    150  O          0.6450  124.0860   91.1490 O.2   238  PRO238     -0.2715
    151  CB         3.6420  124.2150   92.5530 C.3   238  PRO238      0.0310
    152  CG         3.4290  122.8910   93.1100 C.3   238  PRO238      0.0237
    153  CD         2.4960  123.0890   94.2480 C.3   238  PRO238      0.0939
    154  N          2.0450  125.6770   90.3700 N.am  239  GLY239     -0.1941
    155  CA         1.5990  125.5700   88.9890 C.3   239  GLY239      0.2014
    156  C          2.4930  124.5840   88.2960 C.2   239  GLY239      0.2638
    157  O          3.6090  124.3440   88.7410 O.2   239  GLY239     -0.2714
    158  N          2.0320  123.9970   87.2040 N.am  240  VAL240     -0.1977
    159  CA         2.8170  122.9600   86.5730 C.3   240  VAL240      0.1596
    160  C          2.8870  123.2420   85.1030 C.2   240  VAL240      0.2287
    161  O          1.9100  123.7140   84.5330 O.2   240  VAL240     -0.2864
    162  CB         2.2530  121.5460   86.9120 C.3   240  VAL240      0.0276
    163  CG1        2.9420  120.4700   86.1010 C.3   240  VAL240      0.0022
    164  CG2        2.4070  121.2960   88.3880 C.3   240  VAL240      0.0022
@<TRIPOS>BOND
     1     1     2    1
     2     4     3    2
     3     3     2    1
     4     2     5    1
     5    78    77    2
     6     5     6    1
     7    77    76    1
     8     6     8   ar
     9     6     7   ar
    10     8    10   ar
    11     7     9   ar
    12    74    73    2
    13    79    76    1
    14    79    80    1
    15    76    75    1
    16    84    83    2
    17    10     9   ar
    18    81    82    1
    19    73    72    1
    20    72    71    1
    21    32    34   ar
    22    32    31   ar
    23    83    82    1
    24    83    88   am
    25    93    92    1
    26    30    31    1
    27    30    27    1
    28    82    85    1
    29    28    29    2
    30    28    27    1
    31    85    87    1
    32    85    86    1
    33    69    68    2
    34    34    35   ar
    35    31    33   ar
    36    89    92    1
    37    89    88    1
    38    89    90    1
    39    27    26    1
    40    71    64   am
    41    70    68   am
    42    91    90    2
    43    68    67    1
    44    35    33   ar
    45    90    94   am
    46    64    65    2
    47    64    63    1
    48    67    66    1
    49    59    58    2
    50    94    95    1
    51    63    66    1
    52    63    62    1
    53   100   102   ar
    54   100    99   ar
    55   161   160    2
    56   102   103   ar
    57    98    95    1
    58    98    99    1
    59   160   159    1
    60    95    96    1
    61    58    62   am
    62    58    57    1
    63    99   101   ar
    64    54    55    1
    65    54    51    1
    66   163   162    1
    67    56    57    1
    68    56    52   am
    69   103   101   ar
    70   103   105   ar
    71    11    12    1
    72    57    60    1
    73   101   104   ar
    74    96    97    2
    75    96   108   am
    76   159   162    1
    77   159   158    1
    78    51    52    1
    79    51    50    1
    80   162   164    1
    81    12    13    1
    82    12    15    1
    83    14    13    2
    84    52    53    2
    85    13    18   am
    86   158   156   am
    87    60    61    1
    88   105   107   ar
    89    20    19    1
    90    20    21    2
    91    18    19    1
    92   108   109    1
    93    19    22    1
    94   104   106   ar
    95    50    44   am
    96   156   157    2
    97   156   155    1
    98    17    15    1
    99    61   132    1
   100    15    16    1
   101   107   106   ar
   102    45    44    2
   103   111   110    2
   104   109   110    1
   105    44    43    1
   106   155   154    1
   107    22    23    1
   108   132   131    1
   109   110   112   am
   110    24    23    1
   111    23    25    1
   112    48    47   ar
   113    39    38    2
   114    43    42    1
   115    43    46    1
   116   154   149   am
   117    37    38    1
   118    37    36    1
   119    37    40    1
   120   122   120    1
   121    47    46    1
   122    47    49   ar
   123   126   125    2
   124   112   113    1
   125   131   128    1
   126   150   149    2
   127    40    41    1
   128   149   148    1
   129   113   114    1
   130   113   116    1
   131   120   121    1
   132   120   119    2
   133   125   127   am
   134   125   124    1
   135   128   127    1
   136   128   129    1
   137   123   114   am
   138   123   124    1
   139   114   115    2
   140   119   118    1
   141   151   148    1
   142   151   152    1
   143   116   117    1
   144   148   147    1
   145   129   133   am
   146   129   130    2
   147   152   153    1
   148   133   134    1
   149   117   118    1
   150   147   153    1
   151   147   140   am
   152   141   140    2
   153   137   134    1
   154   134   135    1
   155   140   139    1
   156   139   142    1
   157   139   138    1
   158   142   143    1
   159   135   136    2
   160   144   143    1
   161   144   145    1
   162   146   145    1
