@<TRIPOS>MOLECULE
tmp/2vnuB00.pdb
 99 95 0 0 0
SMALL
GASTEIGER

@<TRIPOS>ATOM
      1  N         69.8870   26.9570   18.1690 N.3   258  ALA258     -0.1231
      2  CA        71.3290   27.2710   18.1810 C.3   258  ALA258      0.1694
      3  C         72.1370   25.9790   18.1900 C.2   258  ALA258      0.2592
      4  O         71.9650   25.1310   19.0510 O.2   258  ALA258     -0.2718
      5  CB        71.7160   28.1550   19.3820 C.3   258  ALA258      0.0304
      6  N         73.0060   25.8550   17.2010 N.am  259  LYS259     -0.1966
      7  CA        73.8120   24.6750   16.9710 C.3   259  LYS259      0.1728
      8  C         75.2360   25.1680   16.7790 C.2   259  LYS259      0.2616
      9  O         75.4850   26.0620   15.9770 O.2   259  LYS259     -0.2715
     10  CB        73.3100   23.9690   15.7080 C.3   259  LYS259      0.0311
     11  CG        74.0550   22.7110   15.3060 C.3   259  LYS259      0.0038
     12  CD        73.5510   21.5080   16.0800 C.3   259  LYS259      0.0206
     13  CE        74.2940   20.2340   15.7000 C.3   259  LYS259      0.1093
     14  NZ        73.9330   19.7850   14.3170 N.3   259  LYS259     -0.1314
     15  N         76.1650   24.6160   17.5450 N.am  260  LYS260     -0.1963
     16  CA        77.5790   24.9550   17.4130 C.3   260  LYS260      0.1728
     17  C         78.1060   24.3650   16.1010 C.2   260  LYS260      0.2616
     18  O         77.8630   23.1890   15.7960 O.2   260  LYS260     -0.2715
     19  CB        78.3630   24.4140   18.6100 C.3   260  LYS260      0.0311
     20  CG        79.3360   25.4090   19.2040 C.3   260  LYS260      0.0038
     21  CD        80.7460   25.1620   18.7350 C.3   260  LYS260      0.0206
     22  CE        81.5820   24.5640   19.8620 C.3   260  LYS260      0.1093
     23  NZ        81.6650   25.5300   21.0070 N.3   260  LYS260     -0.1314
     24  N         78.8040   25.1910   15.3230 N.am  261  LEU261     -0.1964
     25  CA        79.3400   24.7660   14.0290 C.3   261  LEU261      0.1713
     26  C         80.7040   24.0720   14.1550 C.2   261  LEU261      0.2458
     27  O         81.3640   24.1780   15.2070 O.2   261  LEU261     -0.2730
     28  CB        79.3920   25.9500   13.0420 C.3   261  LEU261      0.0310
     29  CG        78.0620   26.4340   12.4450 C.3   261  LEU261      0.0022
     30  CD1       78.3090   27.5490   11.4570 C.3   261  LEU261      0.0001
     31  CD2       77.3150   25.3050   11.7630 C.3   261  LEU261      0.0001
     32  N         81.1430   23.3690   13.0810 N.am  262  PRO262     -0.2716
     33  CA        82.4690   22.7330   13.1250 C.3   262  PRO262      0.1536
     34  C         83.6070   23.7310   13.3340 C.2   262  PRO262      0.2599
     35  O         84.6660   23.3390   13.8450 O.2   262  PRO262     -0.2715
     36  CB        82.6130   22.0820   11.7470 C.3   262  PRO262      0.0310
     37  CG        81.2290   22.0600   11.1450 C.3   262  PRO262      0.0237
     38  CD        80.4550   23.1500   11.7900 C.3   262  PRO262      0.0939
     39  N         83.3870   24.9960   12.9520 N.am  263  ASN263     -0.1959
     40  CA        84.4370   26.0370   12.9710 C.3   263  ASN263      0.1819
     41  C         84.5000   26.9370   14.2200 C.2   263  ASN263      0.2621
     42  O         85.2970   27.8780   14.2800 O.2   263  ASN263     -0.2715
     43  CB        84.3780   26.8940   11.6950 C.3   263  ASN263      0.1195
     44  CG        83.1340   27.7740   11.6110 C.2   263  ASN263      0.2630
     45  OD1       82.2410   27.7250   12.4590 O.2   263  ASN263     -0.2716
     46  ND2       83.0840   28.5960   10.5810 N.am  263  ASN263     -0.0877
     47  N         83.6680   26.6470   15.2140 N.am  264  GLY264     -0.1954
     48  CA        83.6190   27.4770   16.4160 C.3   264  GLY264      0.1869
     49  C         82.4780   28.4760   16.4480 C.2   264  GLY264      0.2309
     50  O         82.0670   28.9200   17.5230 O.2   264  GLY264     -0.2863
     51  N         78.4640   29.9520   15.4960 N.3   266  TRP266     -0.1241
     52  CA        77.1070   29.5390   15.8430 C.3   266  TRP266      0.1605
     53  C         76.1880   29.4780   14.6400 C.2   266  TRP266      0.2264
     54  O         76.1530   30.3930   13.8330 O.2   266  TRP266     -0.2867
     55  CB        76.5170   30.5070   16.8800 C.3   266  TRP266      0.0550
     56  CG        77.1310   30.3070   18.1820 C.ar  266  TRP266      0.0003
     57  CD1       78.0840   31.0830   18.7770 C.ar  266  TRP266      0.0946
     58  CD2       76.8970   29.2090   19.0570 C.ar  266  TRP266      0.0152
     59  NE1       78.4410   30.5430   19.9910 N.ar  266  TRP266     -0.2442
     60  CE2       77.7330   29.3850   20.1790 C.ar  266  TRP266      0.0810
     61  CE3       76.0520   28.0910   19.0060 C.ar  266  TRP266      0.0012
     62  CZ2       77.7420   28.4810   21.2490 C.ar  266  TRP266      0.0191
     63  CZ3       76.0650   27.1950   20.0560 C.ar  266  TRP266      0.0001
     64  CH2       76.9040   27.3940   21.1690 C.ar  266  TRP266      0.0015
     65  N         81.1250   34.2040   18.3620 N.3   332  ASP332     -0.1239
     66  CA        80.8230   34.1130   19.7950 C.3   332  ASP332      0.1674
     67  C         80.5820   35.4820   20.4600 C.2   332  ASP332      0.2266
     68  O         80.1280   35.5660   21.5990 O.2   332  ASP332     -0.2867
     69  CB        81.8590   33.2840   20.5590 C.3   332  ASP332      0.1410
     70  CG        81.2910   32.7160   21.8600 C.2   332  ASP332      0.3668
     71  OD1       80.0440   32.5200   21.9420 O.co2 332  ASP332     -0.2456
     72  OD2       82.0850   32.4620   22.7920 O.co2 332  ASP332     -0.2456
     73  N         70.8400   18.6250   24.9930 N.3   368  GLU368     -0.1245
     74  CA        71.1060   19.3440   23.7600 C.3   368  GLU368      0.1567
     75  C         70.2090   20.5560   23.5400 C.2   368  GLU368      0.2260
     76  O         70.6560   21.5670   23.0000 O.2   368  GLU368     -0.2867
     77  CB        71.0060   18.3720   22.5920 C.3   368  GLU368      0.0388
     78  CG        72.1450   18.4990   21.6110 C.3   368  GLU368      0.1160
     79  CD        72.7100   17.1520   21.1750 C.2   368  GLU368      0.3649
     80  OE1       71.9320   16.1750   20.9520 O.co2 368  GLU368     -0.2457
     81  OE2       73.9590   17.0850   21.0550 O.co2 368  GLU368     -0.2457
     82  N         71.4210   24.6320   23.8680 N.3   371  GLY371     -0.1225
     83  CA        70.9900   25.5330   22.8050 C.3   371  GLY371      0.1811
     84  C         70.3940   26.8070   23.3690 C.2   371  GLY371      0.2280
     85  O         70.7990   27.9030   22.9990 O.2   371  GLY371     -0.2866
     86  N         73.0160   28.8280   24.9740 N.3   373  ALA373     -0.1245
     87  CA        73.8060   29.5080   23.9400 C.3   373  ALA373      0.1562
     88  C         73.1160   30.7700   23.4860 C.2   373  ALA373      0.2260
     89  O         73.7540   31.8290   23.4100 O.2   373  ALA373     -0.2867
     90  CB        74.0720   28.5770   22.7480 C.3   373  ALA373      0.0290
     91  N         73.1160   33.6250   26.0670 N.3   376  LYS376     -0.1245
     92  CA        74.4350   34.2440   26.0210 C.3   376  LYS376      0.1561
     93  C         74.6070   35.1870   24.8450 C.2   376  LYS376      0.2260
     94  O         75.0440   36.3170   25.0340 O.2   376  LYS376     -0.2867
     95  CB        75.5280   33.1780   26.0220 C.3   376  LYS376      0.0271
     96  CG        75.7340   32.5750   27.3870 C.3   376  LYS376      0.0035
     97  CD        76.5290   31.3060   27.2960 C.3   376  LYS376      0.0206
     98  CE        77.0790   30.9240   28.6630 C.3   376  LYS376      0.1093
     99  NZ        78.1500   29.9020   28.4960 N.3   376  LYS376     -0.1314
@<TRIPOS>BOND
     1    46    44   am
     2    37    36    1
     3    37    38    1
     4    30    29    1
     5    44    43    1
     6    44    45    2
     7    43    40    1
     8    36    33    1
     9    31    29    1
    10    38    32    1
    11    29    28    1
    12    39    40    1
    13    39    34   am
    14    40    41    1
    15    28    25    1
    16    32    33    1
    17    32    26   am
    18    33    34    1
    19    34    35    2
    20    54    53    2
    21    25    26    1
    22    25    24    1
    23    26    27    2
    24    41    42    2
    25    41    47   am
    26    14    13    1
    27    53    52    1
    28    47    48    1
    29    11    10    1
    30    11    12    1
    31    24    17   am
    32    51    52    1
    33    13    12    1
    34    10     7    1
    35    18    17    2
    36    52    55    1
    37     9     8    2
    38    17    16    1
    39    48    49    1
    40    49    50    2
    41     8     7    1
    42     8    15   am
    43    55    56    1
    44     7     6    1
    45     6     3   am
    46    16    15    1
    47    16    19    1
    48     1     2    1
    49     2     3    1
    50     2     5    1
    51    56    57   ar
    52    56    58   ar
    53     3     4    2
    54    65    66    1
    55    19    20    1
    56    21    20    1
    57    21    22    1
    58    57    59   ar
    59    61    58   ar
    60    61    63   ar
    61    58    60   ar
    62    66    67    1
    63    66    69    1
    64    22    23    1
    65    59    60   ar
    66    63    64   ar
    67    60    62   ar
    68    67    68    2
    69    69    70    1
    70    80    79   ar
    71    81    79   ar
    72    64    62   ar
    73    79    78    1
    74    78    77    1
    75    70    71   ar
    76    70    72   ar
    77    77    74    1
    78    90    87    1
    79    83    84    1
    80    83    82    1
    81    85    84    2
    82    76    75    2
    83    89    88    2
    84    88    87    1
    85    75    74    1
    86    74    73    1
    87    87    86    1
    88    93    94    2
    89    93    92    1
    90    92    95    1
    91    92    91    1
    92    95    96    1
    93    97    96    1
    94    97    98    1
    95    99    98    1
