@<TRIPOS>MOLECULE
tmp/2vnwA00.pdb
 125 117 0 0 0
SMALL
GASTEIGER

@<TRIPOS>ATOM
      1  N          8.3540   14.9100    8.0230 N.3    36  LEU36      -0.1231
      2  CA         8.1970   13.4800    8.2540 C.3    36  LEU36       0.1693
      3  C          9.3990   12.6710    7.8100 C.2    36  LEU36       0.2592
      4  O          9.5030   11.4810    8.1120 O.2    36  LEU36      -0.2718
      5  CB         7.0000   12.9700    7.4080 C.3    36  LEU36       0.0284
      6  CG         5.6420   13.6090    7.6040 C.3    36  LEU36       0.0019
      7  CD1        4.6470   12.8940    6.6870 C.3    36  LEU36       0.0001
      8  CD2        5.2020   13.5430    9.0570 C.3    36  LEU36       0.0001
      9  N         10.2700   13.2930    7.0180 N.am   37  GLY37      -0.1957
     10  CA        11.4050   12.5990    6.4810 C.3    37  GLY37       0.1869
     11  C         12.2500   13.5580    5.7040 C.2    37  GLY37       0.2309
     12  O         11.7980   14.6070    5.2550 O.2    37  GLY37      -0.2863
     13  N         10.1170   15.6110    3.0500 N.3    44  VAL44      -0.1245
     14  CA         8.6780   15.3800    2.8990 C.3    44  VAL44       0.1561
     15  C          8.0330   15.9140    4.1750 C.2    44  VAL44       0.2260
     16  O          8.5070   15.6380    5.2830 O.2    44  VAL44      -0.2867
     17  CB         8.3670   13.8930    2.6970 C.3    44  VAL44       0.0252
     18  CG1        6.8480   13.6090    2.7160 C.3    44  VAL44       0.0019
     19  CG2        9.0110   13.4010    1.3870 C.3    44  VAL44       0.0019
     20  N          1.0590   14.3450    2.3240 N.3    57  ALA57      -0.1245
     21  CA         2.5180   14.3330    2.4100 C.3    57  ALA57       0.1562
     22  C          2.9880   15.1080    1.2070 C.2    57  ALA57       0.2260
     23  O          2.6210   14.7820    0.0830 O.2    57  ALA57      -0.2867
     24  CB         3.0450   12.8970    2.3720 C.3    57  ALA57       0.0290
     25  N          1.0430    5.6270   -3.3870 N.3    91  THR91      -0.1218
     26  CA         0.4780    6.9920   -3.2120 C.3    91  THR91       0.1862
     27  C          0.6840    7.8450   -4.4590 C.2    91  THR91       0.2287
     28  O          1.6970    8.5460   -4.5910 O.2    91  THR91      -0.2866
     29  CB         1.0760    7.7420   -1.9910 C.3    91  THR91       0.1770
     30  OG1        2.4670    8.0430   -2.2250 O.3    91  THR91      -0.2211
     31  CG2        0.9280    6.9290   -0.7300 C.3    91  THR91       0.0375
     32  N          0.9150   13.9850   -2.0970 N.3   107  MET107     -0.1230
     33  CA         0.5020   12.5960   -2.0950 C.3   107  MET107      0.1702
     34  C         -0.2900   12.2760   -0.8500 C.2   107  MET107      0.2592
     35  O         -0.1660   12.9780    0.1490 O.2   107  MET107     -0.2718
     36  CB         1.7550   11.7090   -2.0390 C.3   107  MET107      0.0401
     37  CG         2.5280   11.6900   -3.3390 C.3   107  MET107      0.0596
     38  SD         4.2240   11.2400   -3.0760 S.3   107  MET107     -0.1393
     39  CE         4.8460   12.7320   -2.3460 C.3   107  MET107      0.0692
     40  N         -1.0080   11.1530   -0.8870 N.am  108  GLU108     -0.1966
     41  CA        -1.7630   10.6600    0.2670 C.3   108  GLU108      0.1733
     42  C         -0.8220   10.4970    1.4560 C.2   108  GLU108      0.2616
     43  O          0.2770    9.9450    1.3240 O.2   108  GLU108     -0.2715
     44  CB        -2.4360    9.3250   -0.0630 C.3   108  GLU108      0.0429
     45  CG        -3.2170    8.6620    1.0910 C.3   108  GLU108      0.1163
     46  CD        -3.8060    7.2900    0.7170 C.2   108  GLU108      0.3649
     47  OE1       -3.7900    6.9470   -0.4780 O.co2 108  GLU108     -0.2457
     48  OE2       -4.2890    6.5550    1.6180 O.co2 108  GLU108     -0.2457
     49  N         -1.2440   10.9980    2.6100 N.am  109  TYR109     -0.1960
     50  CA        -0.4870   10.8200    3.8680 C.3   109  TYR109      0.1771
     51  C         -0.7500    9.4560    4.5160 C.2   109  TYR109      0.2619
     52  O         -1.9020    9.0530    4.7090 O.2   109  TYR109     -0.2715
     53  CB        -0.8460   11.9450    4.8100 C.3   109  TYR109      0.0574
     54  CG        -0.3050   11.8470    6.1970 C.ar  109  TYR109     -0.0198
     55  CD1        1.0430   11.7180    6.4230 C.ar  109  TYR109     -0.0009
     56  CD2       -1.1480   11.9230    7.2930 C.ar  109  TYR109     -0.0009
     57  CE1        1.5480   11.6400    7.6910 C.ar  109  TYR109      0.0417
     58  CE2       -0.6460   11.8430    8.5830 C.ar  109  TYR109      0.0417
     59  CZ         0.7100   11.7130    8.7720 C.ar  109  TYR109      0.1957
     60  OH         1.2460   11.6540   10.0350 O.3   109  TYR109     -0.2866
     61  N          0.3370    8.7420    4.8300 N.am  110  ALA110     -0.1977
     62  CA         0.2770    7.4860    5.5290 C.3   110  ALA110      0.1597
     63  C          0.7010    7.7570    6.9770 C.2   110  ALA110      0.2287
     64  O          1.8940    7.9450    7.2550 O.2   110  ALA110     -0.2864
     65  CB         1.1900    6.4360    4.8560 C.3   110  ALA110      0.0319
     66  N          7.0260    4.7610    9.0920 N.3   114  GLU114     -0.1245
     67  CA         7.7930    3.8260    8.2930 C.3   114  GLU114      0.1567
     68  C          7.7670    2.4300    8.9030 C.2   114  GLU114      0.2260
     69  O          7.9290    2.2660   10.1150 O.2   114  GLU114     -0.2867
     70  CB         9.2400    4.2890    8.2090 C.3   114  GLU114      0.0388
     71  CG         9.4670    5.6300    7.5610 C.3   114  GLU114      0.1160
     72  CD        10.9160    6.0910    7.6370 C.2   114  GLU114      0.3649
     73  OE1       11.7590    5.3030    8.1210 O.co2 114  GLU114     -0.2457
     74  OE2       11.2020    7.2430    7.2370 O.co2 114  GLU114     -0.2457
     75  N         12.5440    1.4270    5.1840 N.3   156  GLU156     -0.1231
     76  CA        12.5650    2.8850    5.2300 C.3   156  GLU156      0.1699
     77  C         11.5990    3.4900    4.2390 C.2   156  GLU156      0.2592
     78  O         11.1940    4.6330    4.4140 O.2   156  GLU156     -0.2718
     79  CB        13.9570    3.4220    4.8920 C.3   156  GLU156      0.0402
     80  CG        15.0850    3.1560    5.9310 C.3   156  GLU156      0.1161
     81  CD        15.8640    1.8760    5.6860 C.2   156  GLU156      0.3649
     82  OE1       15.2660    0.8390    5.3050 O.co2 156  GLU156     -0.2457
     83  OE2       17.0800    1.8810    5.9540 O.co2 156  GLU156     -0.2457
     84  N         11.2870    2.7420    3.1700 N.am  157  ASN157     -0.1974
     85  CA        10.4850    3.2480    2.0330 C.3   157  ASN157      0.1688
     86  C          9.1060    2.6110    1.9210 C.2   157  ASN157      0.2292
     87  O          8.4930    2.6450    0.8420 O.2   157  ASN157     -0.2864
     88  CB        11.2560    3.0170    0.7070 C.3   157  ASN157      0.1181
     89  CG        12.4440    3.9750    0.5330 C.2   157  ASN157      0.2629
     90  OD1       12.6380    4.9120    1.3150 O.2   157  ASN157     -0.2716
     91  ND2       13.2340    3.7410   -0.4990 N.am  157  ASN157     -0.0877
     92  N          5.5100    2.7190    3.9590 N.3   159  MET159     -0.1245
     93  CA         4.7290    3.5100    4.9260 C.3   159  MET159      0.1570
     94  C          3.5220    2.7070    5.3310 C.2   159  MET159      0.2261
     95  O          2.8970    2.0790    4.4750 O.2   159  MET159     -0.2867
     96  CB         4.2700    4.8220    4.2980 C.3   159  MET159      0.0387
     97  CG         5.4200    5.7070    3.7830 C.3   159  MET159      0.0595
     98  SD         6.7100    5.8680    5.0480 S.3   159  MET159     -0.1393
     99  CE         5.8510    6.8100    6.3220 C.3   159  MET159      0.0692
    100  N          6.4470    3.9680   -1.0920 N.3   169  THR169     -0.1203
    101  CA         6.7540    5.3680   -1.4490 C.3   169  THR169      0.1994
    102  C          8.1290    5.4430   -2.1500 C.2   169  THR169      0.2617
    103  O          8.6070    4.4270   -2.6600 O.2   169  THR169     -0.2717
    104  CB         6.6680    6.2400   -0.1820 C.3   169  THR169      0.1784
    105  OG1        7.5400    5.7190    0.8320 O.3   169  THR169     -0.2211
    106  CG2        5.2390    6.1850    0.3620 C.3   169  THR169      0.0376
    107  N          8.7230    6.6350   -2.2200 N.am  170  ASP170     -0.1973
    108  CA        10.1170    6.8390   -2.6650 C.3   170  ASP170      0.1709
    109  C         10.4020    6.3100   -4.0760 C.2   170  ASP170      0.2293
    110  O         11.1540    5.3240   -4.2550 O.2   170  ASP170     -0.2864
    111  CB        11.0650    6.2290   -1.6220 C.3   170  ASP170      0.1436
    112  CG        10.9180    6.9070   -0.2750 C.2   170  ASP170      0.3671
    113  OD1       10.1170    6.4220    0.5620 O.co2 170  ASP170     -0.2456
    114  OD2       11.5520    7.9610   -0.0840 O.co2 170  ASP170     -0.2456
    115  N          6.1400    8.9620   13.7330 N.3   312  PHE312     -0.1241
    116  CA         7.2780    9.4530   12.9750 C.3   312  PHE312      0.1605
    117  C          8.3150    9.9760   13.9270 C.2   312  PHE312      0.2264
    118  O          7.9730   10.4420   15.0230 O.2   312  PHE312     -0.2867
    119  CB         6.8580   10.5710   12.0540 C.3   312  PHE312      0.0534
    120  CG         6.0370   10.1150   10.8980 C.ar  312  PHE312     -0.0203
    121  CD1        6.6420    9.8170    9.6910 C.ar  312  PHE312     -0.0042
    122  CD2        4.6540    9.9790   11.0160 C.ar  312  PHE312     -0.0042
    123  CE1        5.9010    9.3840    8.6150 C.ar  312  PHE312     -0.0003
    124  CE2        3.8990    9.5230    9.9300 C.ar  312  PHE312     -0.0003
    125  CZ         4.5340    9.2380    8.7280 C.ar  312  PHE312     -0.0000
@<TRIPOS>BOND
     1    28    27    2
     2    27    26    1
     3   110   109    2
     4   109   108    1
     5    25    26    1
     6    37    38    1
     7    37    36    1
     8    26    29    1
     9    38    39    1
    10   108   107    1
    11   108   111    1
    12   103   102    2
    13    30    29    1
    14   107   102   am
    15   102   101    1
    16    32    33    1
    17    33    36    1
    18    33    34    1
    19    29    31    1
    20   111   112    1
    21   101   100    1
    22   101   104    1
    23    40    34   am
    24    40    41    1
    25    34    35    2
    26    91    89   am
    27    47    46   ar
    28   112   114   ar
    29   112   113   ar
    30   104   106    1
    31   104   105    1
    32    44    41    1
    33    44    45    1
    34    23    22    2
    35    41    42    1
    36    89    88    1
    37    89    90    2
    38    88    85    1
    39    46    45    1
    40    46    48   ar
    41    87    86    2
    42    22    21    1
    43    43    42    2
    44    19    17    1
    45    42    49   am
    46    86    85    1
    47    85    84    1
    48    20    21    1
    49    24    21    1
    50    49    50    1
    51    17    18    1
    52    17    14    1
    53    14    13    1
    54    14    15    1
    55    84    77   am
    56    97    96    1
    57    97    98    1
    58    50    51    1
    59    50    53    1
    60    92    93    1
    61    15    16    2
    62    77    78    2
    63    77    76    1
    64    96    93    1
    65    95    94    2
    66    51    52    2
    67    51    61   am
    68    53    54    1
    69    61    62    1
    70    65    62    1
    71    79    76    1
    72    79    80    1
    73    93    94    1
    74    98    99    1
    75    75    76    1
    76    12    11    2
    77    82    81   ar
    78    62    63    1
    79    81    80    1
    80    81    83   ar
    81    11    10    1
    82    54    55   ar
    83    54    56   ar
    84    55    57   ar
    85    10     9    1
    86     7     6    1
    87    63    64    2
    88     9     3   am
    89    74    72   ar
    90    56    58   ar
    91     5     6    1
    92     5     2    1
    93    71    72    1
    94    71    70    1
    95     6     8    1
    96    72    73   ar
    97    57    59   ar
    98     3     4    2
    99     3     2    1
   100     1     2    1
   101    70    67    1
   102    67    68    1
   103    67    66    1
   104    58    59   ar
   105   123   125   ar
   106   123   121   ar
   107   125   124   ar
   108    59    60    1
   109    68    69    2
   110   121   120   ar
   111   124   122   ar
   112   120   122   ar
   113   120   119    1
   114   119   116    1
   115   116   115    1
   116   116   117    1
   117   117   118    2
