@<TRIPOS>MOLECULE
tmp/2vnyA00.pdb
 125 117 0 0 0
SMALL
GASTEIGER

@<TRIPOS>ATOM
      1  N          8.6100   14.9370    7.9260 N.3    36  LEU36      -0.1231
      2  CA         8.3530   13.5160    8.1730 C.3    36  LEU36       0.1693
      3  C          9.5110   12.6230    7.7330 C.2    36  LEU36       0.2592
      4  O          9.5560   11.4180    8.0160 O.2    36  LEU36      -0.2718
      5  CB         7.1190   13.0940    7.3730 C.3    36  LEU36       0.0284
      6  CG         5.7750   13.7300    7.6890 C.3    36  LEU36       0.0019
      7  CD1        4.7550   13.0750    6.7820 C.3    36  LEU36       0.0001
      8  CD2        5.3940   13.5080    9.1490 C.3    36  LEU36       0.0001
      9  N         10.4290   13.2120    7.0000 N.am   37  GLY37      -0.1957
     10  CA        11.5260   12.4820    6.4710 C.3    37  GLY37       0.1869
     11  C         12.3690   13.4240    5.6600 C.2    37  GLY37       0.2309
     12  O         11.9120   14.4550    5.1650 O.2    37  GLY37      -0.2863
     13  N         10.2230   15.3400    2.9490 N.3    44  VAL44      -0.1245
     14  CA         8.7840   15.1700    2.8840 C.3    44  VAL44       0.1561
     15  C          8.1640   15.8180    4.1160 C.2    44  VAL44       0.2260
     16  O          8.5680   15.5400    5.2420 O.2    44  VAL44      -0.2867
     17  CB         8.4110   13.6800    2.8270 C.3    44  VAL44       0.0252
     18  CG1        6.8840   13.4890    2.8850 C.3    44  VAL44       0.0019
     19  CG2        9.0270   13.0320    1.5720 C.3    44  VAL44       0.0019
     20  N          1.1560   14.3670    2.2410 N.3    57  ALA57      -0.1245
     21  CA         2.6130   14.3530    2.3290 C.3    57  ALA57       0.1562
     22  C          3.1410   15.1590    1.1580 C.2    57  ALA57       0.2260
     23  O          2.8040   14.8790    0.0150 O.2    57  ALA57      -0.2867
     24  CB         3.1350   12.9350    2.2660 C.3    57  ALA57       0.0290
     25  N          1.0170    5.7210   -3.4980 N.3    91  THR91      -0.1218
     26  CA         0.4810    7.0790   -3.2850 C.3    91  THR91       0.1862
     27  C          0.6840    7.9350   -4.5480 C.2    91  THR91       0.2287
     28  O          1.6730    8.6720   -4.6620 O.2    91  THR91      -0.2866
     29  CB         1.1530    7.8120   -2.0870 C.3    91  THR91       0.1770
     30  OG1        2.5480    8.0390   -2.3660 O.3    91  THR91      -0.2211
     31  CG2        0.9800    7.0130   -0.7660 C.3    91  THR91       0.0375
     32  N          1.0070   14.0720   -2.2110 N.3   107  MET107     -0.1230
     33  CA         0.5630   12.6800   -2.1880 C.3   107  MET107      0.1702
     34  C         -0.2310   12.3670   -0.9300 C.2   107  MET107      0.2592
     35  O         -0.1070   13.0560    0.0750 O.2   107  MET107     -0.2718
     36  CB         1.8070   11.7520   -2.1220 C.3   107  MET107      0.0401
     37  CG         2.6780   11.7210   -3.3540 C.3   107  MET107      0.0596
     38  SD         4.3430   11.1180   -3.0420 S.3   107  MET107     -0.1393
     39  CE         5.1140   12.5860   -2.3750 C.3   107  MET107      0.0692
     40  N         -0.9810   11.2700   -0.9530 N.am  108  GLU108     -0.1966
     41  CA        -1.6140   10.7420    0.2760 C.3   108  GLU108      0.1733
     42  C         -0.6370   10.5730    1.4460 C.2   108  GLU108      0.2616
     43  O          0.4380    9.9820    1.2900 O.2   108  GLU108     -0.2715
     44  CB        -2.2670    9.4050   -0.0210 C.3   108  GLU108      0.0429
     45  CG        -3.0510    8.7780    1.1560 C.3   108  GLU108      0.1163
     46  CD        -3.7320    7.4860    0.7460 C.2   108  GLU108      0.3649
     47  OE1       -3.8460    7.2480   -0.4720 O.co2 108  GLU108     -0.2457
     48  OE2       -4.1450    6.7090    1.6300 O.co2 108  GLU108     -0.2457
     49  N         -1.0370   11.0770    2.6130 N.am  109  TYR109     -0.1960
     50  CA        -0.3060   10.9120    3.8680 C.3   109  TYR109      0.1771
     51  C         -0.6440    9.5980    4.5680 C.2   109  TYR109      0.2619
     52  O         -1.8240    9.2690    4.8210 O.2   109  TYR109     -0.2715
     53  CB        -0.5530   12.1140    4.7780 C.3   109  TYR109      0.0574
     54  CG        -0.1170   11.9750    6.2150 C.ar  109  TYR109     -0.0198
     55  CD1        1.2070   11.7560    6.5370 C.ar  109  TYR109     -0.0009
     56  CD2       -1.0410   12.0910    7.2650 C.ar  109  TYR109     -0.0009
     57  CE1        1.6150   11.6330    7.8230 C.ar  109  TYR109      0.0417
     58  CE2       -0.6380   11.9770    8.5800 C.ar  109  TYR109      0.0417
     59  CZ         0.7040   11.7520    8.8560 C.ar  109  TYR109      0.1957
     60  OH         1.1640   11.6330   10.1470 O.3   109  TYR109     -0.2866
     61  N          0.4120    8.8390    4.8510 N.am  110  ALA110     -0.1977
     62  CA         0.3310    7.6170    5.6220 C.3   110  ALA110      0.1597
     63  C          0.6820    7.9160    7.0870 C.2   110  ALA110      0.2287
     64  O          1.8410    8.1540    7.4200 O.2   110  ALA110     -0.2864
     65  CB         1.2420    6.5830    5.0520 C.3   110  ALA110      0.0319
     66  N          6.9030    4.7260    9.1470 N.3   114  GLU114     -0.1245
     67  CA         7.6430    3.7760    8.2990 C.3   114  GLU114      0.1567
     68  C          7.6360    2.3840    8.9230 C.2   114  GLU114      0.2260
     69  O          7.7440    2.2630   10.1420 O.2   114  GLU114     -0.2867
     70  CB         9.1070    4.1970    8.1490 C.3   114  GLU114      0.0388
     71  CG         9.3130    5.6040    7.6500 C.3   114  GLU114      0.1160
     72  CD        10.7740    6.0260    7.6740 C.2   114  GLU114      0.3649
     73  OE1       11.6180    5.3080    8.2750 O.co2 114  GLU114     -0.2457
     74  OE2       11.0670    7.0970    7.1110 O.co2 114  GLU114     -0.2457
     75  N         12.3490    1.5330    5.0600 N.3   156  GLU156     -0.1231
     76  CA        12.3310    2.9860    5.2000 C.3   156  GLU156      0.1699
     77  C         11.3320    3.5970    4.2460 C.2   156  GLU156      0.2592
     78  O         10.7810    4.6710    4.5280 O.2   156  GLU156     -0.2718
     79  CB        13.7060    3.5770    4.9260 C.3   156  GLU156      0.0402
     80  CG        14.7970    3.2640    5.9840 C.3   156  GLU156      0.1161
     81  CD        15.6080    2.0080    5.6880 C.2   156  GLU156      0.3649
     82  OE1       15.0370    0.9570    5.2920 O.co2 156  GLU156     -0.2457
     83  OE2       16.8150    2.0580    5.9140 O.co2 156  GLU156     -0.2457
     84  N         11.0890    2.9200    3.1160 N.am  157  ASN157     -0.1974
     85  CA        10.2000    3.4600    2.0860 C.3   157  ASN157      0.1688
     86  C          8.7870    2.8900    2.1680 C.2   157  ASN157      0.2292
     87  O          7.9130    3.3220    1.4190 O.2   157  ASN157     -0.2864
     88  CB        10.7630    3.2020    0.6690 C.3   157  ASN157      0.1181
     89  CG        12.0160    4.0290    0.3430 C.2   157  ASN157      0.2629
     90  OD1       12.4030    4.9370    1.0770 O.2   157  ASN157     -0.2716
     91  ND2       12.6480    3.6990   -0.7840 N.am  157  ASN157     -0.0877
     92  N          5.5020    2.7540    4.0380 N.3   159  MET159     -0.1245
     93  CA         4.7160    3.5770    4.9590 C.3   159  MET159      0.1570
     94  C          3.4770    2.8080    5.3750 C.2   159  MET159      0.2261
     95  O          2.7920    2.2510    4.5010 O.2   159  MET159     -0.2867
     96  CB         4.3070    4.8760    4.2510 C.3   159  MET159      0.0387
     97  CG         5.4880    5.7610    3.8110 C.3   159  MET159      0.0595
     98  SD         6.7140    5.8260    5.1150 S.3   159  MET159     -0.1393
     99  CE         5.7770    6.6150    6.4050 C.3   159  MET159      0.0692
    100  N          6.5000    3.9440   -1.2450 N.3   169  THR169     -0.1203
    101  CA         6.7560    5.3500   -1.5210 C.3   169  THR169      0.1994
    102  C          8.1870    5.5690   -1.9990 C.2   169  THR169      0.2617
    103  O          9.0050    4.6450   -2.0310 O.2   169  THR169     -0.2717
    104  CB         6.4410    6.2160   -0.2320 C.3   169  THR169      0.1784
    105  OG1        7.4560    6.0480    0.7740 O.3   169  THR169     -0.2211
    106  CG2        5.1190    5.7990    0.3520 C.3   169  THR169      0.0376
    107  N          8.4940    6.8080   -2.3330 N.am  170  ASP170     -0.1973
    108  CA         9.8030    7.2120   -2.8800 C.3   170  ASP170      0.1709
    109  C         10.1630    6.5470   -4.2150 C.2   170  ASP170      0.2293
    110  O         10.8020    5.4790   -4.2370 O.2   170  ASP170     -0.2864
    111  CB        10.9290    6.9870   -1.8910 C.3   170  ASP170      0.1436
    112  CG        12.1260    7.8970   -2.1660 C.2   170  ASP170      0.3671
    113  OD1       12.2760    8.4420   -3.3170 O.co2 170  ASP170     -0.2456
    114  OD2       12.8840    8.0990   -1.1990 O.co2 170  ASP170     -0.2456
    115  N          6.1670    8.9990   13.7990 N.3   312  PHE312     -0.1241
    116  CA         7.2970    9.5030   13.0310 C.3   312  PHE312      0.1605
    117  C          8.3570   10.0320   13.9660 C.2   312  PHE312      0.2264
    118  O          8.0360   10.5100   15.0680 O.2   312  PHE312     -0.2867
    119  CB         6.8490   10.6280   12.1030 C.3   312  PHE312      0.0534
    120  CG         6.0570   10.1580   10.9270 C.ar  312  PHE312     -0.0203
    121  CD1        6.6790    9.9370    9.6950 C.ar  312  PHE312     -0.0042
    122  CD2        4.6920    9.9090   11.0460 C.ar  312  PHE312     -0.0042
    123  CE1        5.9570    9.4870    8.6150 C.ar  312  PHE312     -0.0003
    124  CE2        3.9720    9.4510    9.9740 C.ar  312  PHE312     -0.0003
    125  CZ         4.5890    9.2430    8.7520 C.ar  312  PHE312     -0.0000
@<TRIPOS>BOND
     1    28    27    2
     2    27    26    1
     3   110   109    2
     4   109   108    1
     5    25    26    1
     6    37    38    1
     7    37    36    1
     8   113   112   ar
     9    26    29    1
    10    38    39    1
    11   108   107    1
    12   108   111    1
    13    30    29    1
    14   107   102   am
    15    32    33    1
    16    33    36    1
    17    33    34    1
    18   112   111    1
    19   112   114   ar
    20    29    31    1
    21   103   102    2
    22   102   101    1
    23   101   100    1
    24   101   104    1
    25    40    34   am
    26    40    41    1
    27    34    35    2
    28    91    89   am
    29    47    46   ar
    30   104   106    1
    31   104   105    1
    32    44    41    1
    33    44    45    1
    34    23    22    2
    35    41    42    1
    36    89    88    1
    37    89    90    2
    38    88    85    1
    39    46    45    1
    40    46    48   ar
    41    22    21    1
    42    43    42    2
    43    87    86    2
    44    42    49   am
    45    19    17    1
    46    85    86    1
    47    85    84    1
    48    20    21    1
    49    24    21    1
    50    49    50    1
    51    17    14    1
    52    17    18    1
    53    14    13    1
    54    14    15    1
    55    84    77   am
    56    97    96    1
    57    97    98    1
    58    50    51    1
    59    50    53    1
    60    92    93    1
    61    15    16    2
    62    77    78    2
    63    77    76    1
    64    96    93    1
    65    95    94    2
    66    51    52    2
    67    51    61   am
    68    53    54    1
    69    61    62    1
    70    79    76    1
    71    79    80    1
    72    93    94    1
    73    65    62    1
    74    75    76    1
    75    98    99    1
    76    12    11    2
    77    82    81   ar
    78    62    63    1
    79    11    10    1
    80    81    83   ar
    81    81    80    1
    82    54    55   ar
    83    54    56   ar
    84    10     9    1
    85    55    57   ar
    86     7     6    1
    87     9     3   am
    88    63    64    2
    89    74    72   ar
    90    56    58   ar
    91     5     6    1
    92     5     2    1
    93    71    72    1
    94    71    70    1
    95    72    73   ar
    96     6     8    1
    97     3     4    2
    98     3     2    1
    99    57    59   ar
   100     1     2    1
   101    70    67    1
   102    67    68    1
   103    67    66    1
   104    58    59   ar
   105   123   125   ar
   106   123   121   ar
   107   125   124   ar
   108    59    60    1
   109    68    69    2
   110   121   120   ar
   111   124   122   ar
   112   120   122   ar
   113   120   119    1
   114   119   116    1
   115   116   115    1
   116   116   117    1
   117   117   118    2
