@<TRIPOS>MOLECULE
tmp/2vo0A02.pdb
 152 148 0 0 0
SMALL
GASTEIGER

@<TRIPOS>ATOM
      1  N        -16.2900   -3.4470  -11.6320 N.3     1  LYS1       -0.1231
      2  CA       -16.3240   -4.7840  -12.3030 C.3     1  LYS1        0.1693
      3  C        -16.5470   -5.9300  -11.2930 C.2     1  LYS1        0.2592
      4  O        -16.3310   -5.7600  -10.0900 O.2     1  LYS1       -0.2718
      5  CB       -15.0330   -5.0060  -13.1070 C.3     1  LYS1        0.0285
      6  CG       -14.7940   -3.9310  -14.1930 C.3     1  LYS1        0.0035
      7  CD       -13.7350   -4.3580  -15.2090 C.3     1  LYS1        0.0206
      8  CE       -13.2970   -3.1950  -16.1250 C.3     1  LYS1        0.1093
      9  NZ       -14.4520   -2.6380  -16.8620 N.3     1  LYS1       -0.1314
     10  N        -16.9980   -7.0820  -11.7930 N.am    2  GLY2       -0.1957
     11  CA       -17.1700   -8.2540  -10.9630 C.3     2  GLY2        0.1869
     12  C        -15.8390   -8.8170  -10.4900 C.2     2  GLY2        0.2309
     13  O        -14.8400   -8.7450  -11.2000 O.2     2  GLY2       -0.2863
     14  N        -14.7070  -11.7560  -10.2680 N.3     3  GLU3       -0.1231
     15  CA       -14.1410  -12.7780  -11.1510 C.3     3  GLU3        0.1699
     16  C        -14.4420  -12.4960  -12.6160 C.2     3  GLU3        0.2592
     17  O        -14.3200  -13.3790  -13.4640 O.2     3  GLU3       -0.2718
     18  CB       -14.6600  -14.1620  -10.7530 C.3     3  GLU3        0.0402
     19  CG       -14.1450  -14.6430   -9.4150 C.3     3  GLU3        0.1161
     20  CD       -12.7200  -15.1330   -9.4690 C.2     3  GLU3        0.3649
     21  OE1      -12.1960  -15.3580  -10.5830 O.co2   3  GLU3       -0.2457
     22  OE2      -12.1280  -15.3070   -8.3810 O.co2   3  GLU3       -0.2457
     23  N        -14.7640  -11.2450  -12.9320 N.am    4  GLN4       -0.1966
     24  CA       -15.0920  -10.8680  -14.3010 C.3     4  GLN4        0.1733
     25  C        -13.8830  -10.9520  -15.2370 C.2     4  GLN4        0.2616
     26  O        -13.9910  -11.4550  -16.3590 O.2     4  GLN4       -0.2715
     27  CB       -15.6930   -9.4590  -14.3260 C.3     4  GLN4        0.0408
     28  CG       -15.9960   -8.9010  -15.7270 C.3     4  GLN4        0.0908
     29  CD       -16.5790   -7.4940  -15.6890 C.2     4  GLN4        0.2608
     30  OE1      -17.3370   -7.1580  -14.7820 O.2     4  GLN4       -0.2717
     31  NE2      -16.2280   -6.6680  -16.6790 N.am    4  GLN4       -0.0878
     32  N        -12.7380  -10.4680  -14.7630 N.am    5  GLU5       -0.1963
     33  CA       -11.5010  -10.4170  -15.5550 C.3     5  GLU5        0.1733
     34  C        -10.4080  -11.3280  -15.0040 C.2     5  GLU5        0.2617
     35  O        -10.2490  -11.4670  -13.7870 O.2     5  GLU5       -0.2715
     36  CB       -10.9530   -8.9720  -15.5630 C.3     5  GLU5        0.0429
     37  CG       -11.8440   -7.9960  -16.3250 C.3     5  GLU5        0.1163
     38  CD       -11.3310   -6.5630  -16.3160 C.2     5  GLU5        0.3649
     39  OE1      -10.5580   -6.1640  -15.4130 O.co2   5  GLU5       -0.2457
     40  OE2      -11.7180   -5.8290  -17.2320 O.co2   5  GLU5       -0.2457
     41  N         -9.6410  -11.9260  -15.9040 N.am    6  SER6       -0.1936
     42  CA        -8.3760  -12.5150  -15.5240 C.3     6  SER6        0.2055
     43  C         -7.4000  -11.4250  -15.0280 C.2     6  SER6        0.2642
     44  O         -7.6220  -10.2290  -15.2080 O.2     6  SER6       -0.2714
     45  CB        -7.7670  -13.2810  -16.6970 C.3     6  SER6        0.2130
     46  OG        -7.4390  -12.4230  -17.7750 O.3     6  SER6       -0.2179
     47  N         -6.3330  -11.8540  -14.3730 N.am    7  VAL7       -0.1977
     48  CA        -5.2720  -10.9430  -13.9870 C.3     7  VAL7        0.1596
     49  C         -4.7090  -10.3040  -15.2530 C.2     7  VAL7        0.2287
     50  O         -4.5500   -9.0800  -15.3070 O.2     7  VAL7       -0.2864
     51  CB        -4.1740  -11.6750  -13.1480 C.3     7  VAL7        0.0276
     52  CG1       -2.9170  -10.8260  -13.0310 C.3     7  VAL7        0.0022
     53  CG2       -4.7420  -12.0480  -11.7770 C.3     7  VAL7        0.0022
     54  N         -7.2310   -7.6750  -16.5060 N.3    10  PHE10      -0.1227
     55  CA        -7.2020   -6.5860  -15.5460 C.3    10  PHE10       0.1736
     56  C         -5.9580   -5.7080  -15.7430 C.2    10  PHE10       0.2595
     57  O         -6.0530   -4.4730  -15.7960 O.2    10  PHE10      -0.2718
     58  CB        -7.2320   -7.1620  -14.1240 C.3    10  PHE10       0.0547
     59  CG        -6.7610   -6.2040  -13.0860 C.ar   10  PHE10      -0.0202
     60  CD1       -7.6120   -5.2640  -12.5680 C.ar   10  PHE10      -0.0042
     61  CD2       -5.4470   -6.2370  -12.6390 C.ar   10  PHE10      -0.0042
     62  CE1       -7.1750   -4.3690  -11.6290 C.ar   10  PHE10      -0.0003
     63  CE2       -5.0010   -5.3320  -11.6900 C.ar   10  PHE10      -0.0003
     64  CZ        -5.8700   -4.4000  -11.1910 C.ar   10  PHE10      -0.0000
     65  N         -4.7970   -6.3500  -15.8220 N.am   11  LEU11      -0.1980
     66  CA        -3.5440   -5.6290  -16.0650 C.3    11  LEU11       0.1596
     67  C         -3.5330   -4.9660  -17.4660 C.2    11  LEU11       0.2287
     68  O         -2.9730   -3.8810  -17.6390 O.2    11  LEU11      -0.2864
     69  CB        -2.3540   -6.5680  -15.8870 C.3    11  LEU11       0.0297
     70  CG        -2.0370   -7.0330  -14.4610 C.3    11  LEU11       0.0022
     71  CD1       -0.8210   -7.9400  -14.4830 C.3    11  LEU11       0.0001
     72  CD2       -1.8190   -5.8340  -13.5220 C.3    11  LEU11       0.0001
     73  N         -2.9270    1.9160   -8.0560 N.3    92  PHE92      -0.1241
     74  CA        -2.9210    0.5510   -7.4980 C.3    92  PHE92       0.1605
     75  C         -3.1130    0.6190   -6.0010 C.2    92  PHE92       0.2264
     76  O         -2.7300    1.6090   -5.3780 O.2    92  PHE92      -0.2867
     77  CB        -1.6120   -0.1560   -7.8590 C.3    92  PHE92       0.0534
     78  CG        -1.6770   -1.6650   -7.7860 C.ar   92  PHE92      -0.0203
     79  CD1       -2.4270   -2.3920   -8.7010 C.ar   92  PHE92      -0.0042
     80  CD2       -0.9320   -2.3570   -6.8370 C.ar   92  PHE92      -0.0042
     81  CE1       -2.4710   -3.7980   -8.6470 C.ar   92  PHE92      -0.0003
     82  CE2       -0.9780   -3.7520   -6.7770 C.ar   92  PHE92      -0.0003
     83  CZ        -1.7390   -4.4630   -7.6780 C.ar   92  PHE92      -0.0000
     84  N          2.3250   -8.3210   -5.6490 N.3   144  LEU144     -0.1245
     85  CA         1.2320   -7.7930   -6.4860 C.3   144  LEU144      0.1561
     86  C          1.6340   -6.4600   -7.1320 C.2   144  LEU144      0.2260
     87  O          1.4040   -6.2370   -8.3120 O.2   144  LEU144     -0.2867
     88  CB        -0.0330   -7.6010   -5.6380 C.3   144  LEU144      0.0270
     89  CG        -0.6930   -8.9100   -5.1580 C.3   144  LEU144      0.0019
     90  CD1       -1.8210   -8.5980   -4.1880 C.3   144  LEU144      0.0001
     91  CD2       -1.1920   -9.7400   -6.3330 C.3   144  LEU144      0.0001
     92  N          4.1780   -6.9910   -9.8830 N.3   147  GLU147     -0.1245
     93  CA         3.5320   -7.5670  -11.0690 C.3   147  GLU147      0.1567
     94  C          2.8560   -6.4430  -11.8430 C.2   147  GLU147      0.2260
     95  O          3.0400   -6.3130  -13.0810 O.2   147  GLU147     -0.2867
     96  CB         2.5290   -8.6920  -10.6940 C.3   147  GLU147      0.0388
     97  CG         1.7750   -9.2730  -11.9350 C.3   147  GLU147      0.1160
     98  CD         1.0390  -10.5810  -11.6340 C.2   147  GLU147      0.3649
     99  OE1        0.6900  -10.8410  -10.4590 O.co2 147  GLU147     -0.2457
    100  OE2        0.8200  -11.3410  -12.5710 O.co2 147  GLU147     -0.2457
    101  N          4.2390  -16.6020   -6.8360 N.3   283  LYS283     -0.1245
    102  CA         2.8940  -16.6760   -6.2730 C.3   283  LYS283      0.1561
    103  C          2.4960  -18.1230   -5.9870 C.2   283  LYS283      0.2260
    104  O          1.7060  -18.3610   -5.0900 O.2   283  LYS283     -0.2867
    105  CB         1.8350  -16.0070   -7.1950 C.3   283  LYS283      0.0271
    106  CG         1.9280  -14.4490   -7.2690 C.3   283  LYS283      0.0035
    107  CD         0.6010  -13.7820   -7.7200 C.3   283  LYS283      0.0206
    108  CE         0.4950  -13.7330   -9.1970 C.3   283  LYS283      0.1093
    109  NZ        -0.7360  -13.0610   -9.6650 N.3   283  LYS283     -0.1314
    110  N         -4.3840  -14.0720   -2.7330 N.3   293  TRP293     -0.1227
    111  CA        -3.9610  -12.9430   -3.5520 C.3   293  TRP293      0.1737
    112  C         -5.1330  -12.0450   -3.8780 C.2   293  TRP293      0.2595
    113  O         -5.0190  -10.8260   -3.8190 O.2   293  TRP293     -0.2718
    114  CB        -3.2960  -13.4430   -4.8290 C.3   293  TRP293      0.0564
    115  CG        -2.0890  -14.2730   -4.6050 C.ar  293  TRP293      0.0003
    116  CD1       -1.9860  -15.6360   -4.7520 C.ar  293  TRP293      0.0946
    117  CD2       -0.7990  -13.8240   -4.1820 C.ar  293  TRP293      0.0152
    118  NE1       -0.7240  -16.0520   -4.4330 N.ar  293  TRP293     -0.2442
    119  CE2        0.0320  -14.9600   -4.0880 C.ar  293  TRP293      0.0810
    120  CE3       -0.2590  -12.5650   -3.8730 C.ar  293  TRP293      0.0012
    121  CZ2        1.3750  -14.8780   -3.7090 C.ar  293  TRP293      0.0191
    122  CZ3        1.0670  -12.4900   -3.5000 C.ar  293  TRP293      0.0001
    123  CH2        1.8700  -13.6300   -3.4080 C.ar  293  TRP293      0.0015
    124  N         -6.2810  -12.6600   -4.1560 N.am  294  ILE294     -0.1980
    125  CA        -7.5050  -11.9220   -4.4610 C.3   294  ILE294      0.1595
    126  C         -8.0060  -11.1300   -3.2680 C.2   294  ILE294      0.2287
    127  O         -8.3830   -9.9730   -3.4230 O.2   294  ILE294     -0.2864
    128  CB        -8.6180  -12.8700   -5.0170 C.3   294  ILE294      0.0276
    129  CG1       -8.1820  -13.4440   -6.3760 C.3   294  ILE294      0.0022
    130  CG2       -9.9410  -12.1330   -5.1640 C.3   294  ILE294      0.0022
    131  CD1       -8.9960  -14.6500   -6.8570 C.3   294  ILE294      0.0001
    132  N         -5.5080   -8.2010   -2.5130 N.3   297  TYR297     -0.1227
    133  CA        -5.7550   -7.1030   -3.4760 C.3   297  TYR297      0.1736
    134  C         -6.9670   -6.2640   -3.0500 C.2   297  TYR297      0.2595
    135  O         -6.9650   -5.0170   -3.1150 O.2   297  TYR297     -0.2718
    136  CB        -5.9440   -7.6570   -4.9040 C.3   297  TYR297      0.0548
    137  CG        -6.3820   -6.5770   -5.8580 C.ar  297  TYR297     -0.0200
    138  CD1       -5.4520   -5.7260   -6.4370 C.ar  297  TYR297     -0.0009
    139  CD2       -7.7280   -6.3510   -6.1170 C.ar  297  TYR297     -0.0009
    140  CE1       -5.8490   -4.6950   -7.2780 C.ar  297  TYR297      0.0417
    141  CE2       -8.1330   -5.3170   -6.9680 C.ar  297  TYR297      0.0417
    142  CZ        -7.1820   -4.5010   -7.5430 C.ar  297  TYR297      0.1957
    143  OH        -7.5710   -3.4700   -8.3590 O.3   297  TYR297     -0.2866
    144  N         -8.0200   -6.9460   -2.6130 N.am  298  GLN298     -0.1979
    145  CA        -9.2570   -6.2670   -2.1980 C.3   298  GLN298      0.1601
    146  C         -9.1850   -5.7270   -0.7690 C.2   298  GLN298      0.2287
    147  O        -10.1490   -5.1540   -0.2740 O.2   298  GLN298     -0.2864
    148  CB       -10.4590   -7.2170   -2.3710 C.3   298  GLN298      0.0394
    149  CG       -10.6840   -7.5790   -3.8370 C.3   298  GLN298      0.0908
    150  CD       -11.8260   -8.5740   -4.0810 C.2   298  GLN298      0.2608
    151  OE1      -12.9740   -8.1900   -4.2190 O.2   298  GLN298     -0.2717
    152  NE2      -11.4830   -9.8490   -4.1960 N.am  298  GLN298     -0.0878
@<TRIPOS>BOND
     1    46    45    1
     2    68    67    2
     3    67    66    1
     4    40    38   ar
     5     9     8    1
     6    45    42    1
     7    31    29   am
     8    54    55    1
     9    26    25    2
    10    37    38    1
    11    37    36    1
    12    38    39   ar
    13     8     7    1
    14    66    69    1
    15    66    65    1
    16    41    42    1
    17    41    34   am
    18    69    70    1
    19    65    56   am
    20    57    56    2
    21    56    55    1
    22    28    29    1
    23    28    27    1
    24    29    30    2
    25    36    33    1
    26    33    34    1
    27    33    32    1
    28    55    58    1
    29    42    43    1
    30    50    49    2
    31    49    48    1
    32    25    32   am
    33    25    24    1
    34     7     6    1
    35    44    43    2
    36    43    47   am
    37    34    35    2
    38    71    70    1
    39    70    72    1
    40    47    48    1
    41    27    24    1
    42    24    23    1
    43     6     5    1
    44    58    59    1
    45    48    51    1
    46    17    16    2
    47    51    52    1
    48    51    53    1
    49     5     2    1
    50    59    61   ar
    51    59    60   ar
    52    95    94    2
    53    23    16   am
    54    61    63   ar
    55    16    15    1
    56   100    98   ar
    57    60    62   ar
    58     2     1    1
    59     2     3    1
    60    97    98    1
    61    97    96    1
    62    94    93    1
    63    10     3   am
    64    10    11    1
    65    63    64   ar
    66    98    99   ar
    67    62    64   ar
    68     3     4    2
    69    13    12    2
    70    15    18    1
    71    15    14    1
    72    93    96    1
    73    93    92    1
    74    11    12    1
    75    18    19    1
    76    21    20   ar
    77   109   108    1
    78    20    19    1
    79    20    22   ar
    80   108   107    1
    81    79    81   ar
    82    79    78   ar
    83    81    83   ar
    84   143   142    1
    85    87    86    2
    86    73    74    1
    87    77    78    1
    88    77    74    1
    89    78    80   ar
    90   107   106    1
    91    83    82   ar
    92   142   140   ar
    93   142   141   ar
    94    74    75    1
    95   140   138   ar
    96   106   105    1
    97   105   102    1
    98    86    85    1
    99   141   139   ar
   100   131   129    1
   101    80    82   ar
   102   101   102    1
   103    85    84    1
   104    85    88    1
   105   138   137   ar
   106   129   128    1
   107    91    89    1
   108   102   103    1
   109   139   137   ar
   110    75    76    2
   111   103   104    2
   112   137   136    1
   113    88    89    1
   114   130   128    1
   115    89    90    1
   116   128   125    1
   117   136   133    1
   118   114   115    1
   119   114   111    1
   120   116   115   ar
   121   116   118   ar
   122   115   117   ar
   123   125   124    1
   124   125   126    1
   125   118   119   ar
   126   151   150    2
   127   152   150   am
   128   117   119   ar
   129   117   120   ar
   130   124   112   am
   131   119   121   ar
   132   150   149    1
   133   112   113    2
   134   112   111    1
   135   120   122   ar
   136   149   148    1
   137   121   123   ar
   138   111   110    1
   139   122   123   ar
   140   133   134    1
   141   133   132    1
   142   127   126    2
   143   135   134    2
   144   134   144   am
   145   144   145    1
   146   148   145    1
   147   145   146    1
   148   146   147    2
