@<TRIPOS>MOLECULE
tmp/2vo0A01.pdb
 168 158 0 0 0
SMALL
GASTEIGER

@<TRIPOS>ATOM
      1  N          8.0590   14.8030    7.8920 N.3    41  LEU41      -0.1231
      2  CA         7.9460   13.3450    8.0720 C.3    41  LEU41       0.1693
      3  C          9.2380   12.5950    7.7030 C.2    41  LEU41       0.2593
      4  O          9.4200   11.4370    8.0670 O.2    41  LEU41      -0.2718
      5  CB         6.8000   12.8490    7.2140 C.3    41  LEU41       0.0284
      6  CG         5.4270   13.4140    7.5550 C.3    41  LEU41       0.0019
      7  CD1        4.4120   12.9410    6.4650 C.3    41  LEU41       0.0001
      8  CD2        4.9640   13.0330    8.9800 C.3    41  LEU41       0.0001
      9  N         10.1270   13.2780    6.9860 N.am   42  GLY42      -0.1942
     10  CA        11.3950   12.7110    6.5740 C.3    42  GLY42       0.2014
     11  C         12.1990   13.7440    5.8340 C.2    42  GLY42       0.2640
     12  O         11.6700   14.7380    5.3300 O.2    42  GLY42      -0.2714
     13  N         13.5030   13.5170    5.7760 N.am   43  THR43      -0.1936
     14  CA        14.4110   14.4110    5.0570 C.3    43  THR43       0.2028
     15  C         15.3510   13.6240    4.1950 C.2    43  THR43       0.2642
     16  O         15.5030   12.4040    4.3450 O.2    43  THR43      -0.2714
     17  CB        15.2740   15.2280    6.0190 C.3    43  THR43       0.1808
     18  OG1       16.0020   14.3380    6.8660 O.3    43  THR43      -0.2208
     19  CG2       14.4310   16.1600    6.8690 C.3    43  THR43       0.0379
     20  N         15.9740   14.3160    3.2560 N.am   44  GLY44      -0.1954
     21  CA        16.9620   13.6770    2.4150 C.3    44  GLY44       0.1869
     22  C         17.8840   14.6800    1.8020 C.2    44  GLY44       0.2309
     23  O         17.8040   15.8790    2.1040 O.2    44  GLY44      -0.2863
     24  N         15.7160   16.8180   -0.7720 N.3    47  GLY47      -0.1210
     25  CA        14.3220   17.0030   -0.4710 C.3    47  GLY47       0.1956
     26  C         13.8810   16.6380    0.9310 C.2    47  GLY47       0.2612
     27  O         14.6750   16.2190    1.7780 O.2    47  GLY47      -0.2717
     28  N         12.5980   16.8700    1.1750 N.am   48  ARG48      -0.1965
     29  CA        11.9560   16.4460    2.4040 C.3    48  ARG48       0.1729
     30  C         10.5000   16.1380    2.1260 C.2    48  ARG48       0.2616
     31  O          9.9800   16.4820    1.0590 O.2    48  ARG48      -0.2715
     32  CB        12.0710   17.5190    3.4660 C.3    48  ARG48       0.0348
     33  CG        11.4000   18.8050    3.0900 C.3    48  ARG48       0.0492
     34  CD        11.9760   19.9650    3.8500 C.3    48  ARG48       0.2205
     35  NE        12.2290   21.0850    2.9450 N.pl3  48  ARG48      -0.0865
     36  CZ        12.2480   22.3600    3.3220 C.cat  48  ARG48       0.5346
     37  NH1       12.0360   22.7000    4.5940 N.pl3  48  ARG48       0.1354
     38  NH2       12.4820   23.3000    2.4170 N.pl3  48  ARG48       0.1354
     39  N          9.8580   15.4870    3.0850 N.am   49  VAL49      -0.1977
     40  CA         8.4440   15.1870    2.9780 C.3    49  VAL49       0.1596
     41  C          7.7560   15.7920    4.1930 C.2    49  VAL49       0.2287
     42  O          8.2260   15.6360    5.3260 O.2    49  VAL49      -0.2864
     43  CB         8.1790   13.6740    2.8510 C.3    49  VAL49       0.0276
     44  CG1        6.6830   13.3800    2.8030 C.3    49  VAL49       0.0022
     45  CG2        8.8530   13.1120    1.5940 C.3    49  VAL49       0.0022
     46  N          0.7140   13.7730    2.2480 N.3    62  ALA62      -0.1245
     47  CA         2.1430   13.8690    2.3250 C.3    62  ALA62       0.1562
     48  C          2.5980   14.6790    1.1220 C.2    62  ALA62       0.2260
     49  O          2.2090   14.3870   -0.0120 O.2    62  ALA62      -0.2867
     50  CB         2.8070   12.4740    2.2850 C.3    62  ALA62       0.0290
     51  N          5.9960   15.9080   -0.8680 N.3    64  LYS64      -0.1245
     52  CA         7.4360   15.8010   -1.1030 C.3    64  LYS64       0.1561
     53  C          7.8830   17.0910   -1.7590 C.2    64  LYS64       0.2260
     54  O          7.3020   17.5080   -2.7710 O.2    64  LYS64      -0.2867
     55  CB         7.7480   14.6140   -2.0270 C.3    64  LYS64       0.0271
     56  CG         9.2400   14.2530   -2.1140 C.3    64  LYS64       0.0035
     57  CD         9.3470   12.8980   -2.7850 C.3    64  LYS64       0.0206
     58  CE        10.7470   12.4950   -3.0660 C.3    64  LYS64       0.1093
     59  NZ        10.6870   11.1400   -3.6260 N.3    64  LYS64      -0.1314
     60  N         11.1280   18.9900   -3.3460 N.3    66  LEU66      -0.1245
     61  CA        12.4880   18.8520   -3.8960 C.3    66  LEU66       0.1561
     62  C         13.0510   20.2030   -4.2840 C.2    66  LEU66       0.2260
     63  O         12.3800   20.9940   -4.9250 O.2    66  LEU66      -0.2867
     64  CB        12.4980   17.9380   -5.1190 C.3    66  LEU66       0.0270
     65  CG        11.8680   16.5720   -4.8860 C.3    66  LEU66       0.0019
     66  CD1       12.0140   15.7400   -6.1470 C.3    66  LEU66       0.0001
     67  CD2       12.5130   15.8920   -3.6950 C.3    66  LEU66       0.0001
     68  N          0.7660    5.1510   -3.7180 N.3    96  THR96      -0.1218
     69  CA         0.1280    6.4550   -3.5730 C.3    96  THR96       0.1862
     70  C          0.4280    7.2970   -4.8160 C.2    96  THR96       0.2287
     71  O          1.4830    7.9430   -4.9120 O.2    96  THR96      -0.2866
     72  CB         0.5890    7.1930   -2.3100 C.3    96  THR96       0.1770
     73  OG1        1.9700    7.5120   -2.4310 O.3    96  THR96      -0.2211
     74  CG2        0.3560    6.3480   -1.0610 C.3    96  THR96       0.0375
     75  N          0.6250   13.4690   -2.1880 N.3   112  MET112     -0.1230
     76  CA         0.1970   12.0710   -2.2130 C.3   112  MET112      0.1702
     77  C         -0.6380   11.7300   -0.9830 C.2   112  MET112      0.2592
     78  O         -0.5000   12.3640    0.0640 O.2   112  MET112     -0.2718
     79  CB         1.4320   11.1570   -2.2260 C.3   112  MET112      0.0401
     80  CG         2.2850   11.2300   -3.5160 C.3   112  MET112      0.0596
     81  SD         3.9600   10.6020   -3.2570 S.3   112  MET112     -0.1393
     82  CE         4.6310   11.8410   -2.1550 C.3   112  MET112      0.0692
     83  N         -1.4670   10.7000   -1.1060 N.am  113  GLU113     -0.1966
     84  CA        -2.2070   10.1530    0.0420 C.3   113  GLU113      0.1733
     85  C         -1.2680    9.9170    1.2140 C.2   113  GLU113      0.2616
     86  O         -0.2340    9.2820    1.0530 O.2   113  GLU113     -0.2715
     87  CB        -2.9010    8.8440   -0.3370 C.3   113  GLU113      0.0429
     88  CG        -3.5600    8.0980    0.8290 C.3   113  GLU113      0.1163
     89  CD        -4.0380    6.7170    0.4670 C.2   113  GLU113      0.3649
     90  OE1       -3.9750    6.3450   -0.7290 O.co2 113  GLU113     -0.2457
     91  OE2       -4.4690    5.9990    1.3940 O.co2 113  GLU113     -0.2457
     92  N         -1.6370   10.4300    2.3790 N.am  114  TYR114     -0.1960
     93  CA        -0.8440   10.2840    3.6160 C.3   114  TYR114      0.1771
     94  C         -1.0140    8.9110    4.2680 C.2   114  TYR114      0.2619
     95  O         -2.1340    8.4400    4.4410 O.2   114  TYR114     -0.2715
     96  CB        -1.2130   11.4170    4.5860 C.3   114  TYR114      0.0574
     97  CG        -0.6010   11.3310    5.9600 C.ar  114  TYR114     -0.0198
     98  CD1        0.7800   11.2670    6.1200 C.ar  114  TYR114     -0.0009
     99  CD2       -1.4160   11.3340    7.1190 C.ar  114  TYR114     -0.0009
    100  CE1        1.3560   11.1890    7.3890 C.ar  114  TYR114      0.0417
    101  CE2       -0.8530   11.2540    8.3970 C.ar  114  TYR114      0.0417
    102  CZ         0.5420   11.1980    8.5290 C.ar  114  TYR114      0.1957
    103  OH         1.1500   11.1130    9.7680 O.3   114  TYR114     -0.2866
    104  N          0.1210    8.2800    4.6190 N.am  115  ALA115     -0.1977
    105  CA         0.1640    6.9920    5.2910 C.3   115  ALA115      0.1597
    106  C          0.5510    7.2040    6.7650 C.2   115  ALA115      0.2287
    107  O          1.7320    7.4350    7.0800 O.2   115  ALA115     -0.2864
    108  CB         1.1760    6.0700    4.5910 C.3   115  ALA115      0.0319
    109  N          6.9620    4.4030    8.7440 N.3   119  GLU119     -0.1245
    110  CA         7.7920    3.5340    7.8990 C.3   119  GLU119      0.1567
    111  C          7.7980    2.1330    8.5010 C.2   119  GLU119      0.2260
    112  O          7.9190    1.9700    9.7250 O.2   119  GLU119     -0.2867
    113  CB         9.2240    4.0620    7.8500 C.3   119  GLU119      0.0388
    114  CG         9.4080    5.3830    7.1570 C.3   119  GLU119      0.1160
    115  CD        10.8040    5.9480    7.3330 C.2   119  GLU119      0.3649
    116  OE1       11.6740    5.2060    7.8290 O.co2 119  GLU119     -0.2457
    117  OE2       11.0380    7.1170    6.9350 O.co2 119  GLU119     -0.2457
    118  N         12.6450    1.1900    4.7290 N.3   162  GLU162     -0.1231
    119  CA        12.5940    2.6450    4.8460 C.3   162  GLU162      0.1699
    120  C         11.6430    3.2810    3.8360 C.2   162  GLU162      0.2592
    121  O         11.2530    4.4400    4.0190 O.2   162  GLU162     -0.2718
    122  CB        13.9780    3.2500    4.6820 C.3   162  GLU162      0.0402
    123  CG        14.9740    2.8520    5.7530 C.3   162  GLU162      0.1161
    124  CD        15.8410    1.6660    5.3680 C.2   162  GLU162      0.3649
    125  OE1       15.2920    0.6300    4.9440 O.co2 162  GLU162     -0.2457
    126  OE2       17.0680    1.7730    5.5180 O.co2 162  GLU162     -0.2457
    127  N         11.3040    2.5220    2.7870 N.am  163  ASN163     -0.1974
    128  CA        10.5270    2.9770    1.6050 C.3   163  ASN163      0.1688
    129  C          9.1930    2.2510    1.4770 C.2   163  ASN163      0.2292
    130  O          8.5850    2.1870    0.4040 O.2   163  ASN163     -0.2864
    131  CB        11.3410    2.7790    0.3220 C.3   163  ASN163      0.1181
    132  CG        12.5690    3.6970    0.2360 C.2   163  ASN163      0.2629
    133  OD1       12.7850    4.5440    1.1100 O.2   163  ASN163     -0.2716
    134  ND2       13.3680    3.5460   -0.8550 N.am  163  ASN163     -0.0877
    135  N          5.5600    2.2570    3.4910 N.3   165  MET165     -0.1245
    136  CA         4.8110    3.0150    4.4930 C.3   165  MET165      0.1570
    137  C          3.6200    2.1860    4.9010 C.2   165  MET165      0.2261
    138  O          3.0320    1.4980    4.0610 O.2   165  MET165     -0.2867
    139  CB         4.3120    4.3830    3.9510 C.3   165  MET165      0.0387
    140  CG         5.4000    5.3620    3.4930 C.3   165  MET165      0.0595
    141  SD         6.7340    5.5360    4.6870 S.3   165  MET165     -0.1393
    142  CE         5.9010    6.5320    5.9350 C.3   165  MET165      0.0692
    143  N          6.4630    3.4760   -1.6480 N.3   175  THR175     -0.1203
    144  CA         6.6980    4.8710   -1.9410 C.3   175  THR175      0.1994
    145  C          8.0850    5.0010   -2.6060 C.2   175  THR175      0.2617
    146  O          8.6470    4.0230   -3.0920 O.2   175  THR175     -0.2717
    147  CB         6.5350    5.7430   -0.6420 C.3   175  THR175      0.1784
    148  OG1        7.4410    5.2880    0.3860 O.3   175  THR175     -0.2211
    149  CG2        5.0930    5.6770   -0.1140 C.3   175  THR175      0.0376
    150  N          8.6180    6.2140   -2.6400 N.am  176  ASP176     -0.1973
    151  CA        10.0020    6.4400   -3.0440 C.3   176  ASP176      0.1709
    152  C         10.3060    5.9420   -4.4720 C.2   176  ASP176      0.2293
    153  O         11.1610    5.0600   -4.6900 O.2   176  ASP176     -0.2864
    154  CB        10.9350    5.7830   -2.0320 C.3   176  ASP176      0.1436
    155  CG        10.8130    6.4000   -0.6540 C.2   176  ASP176      0.3671
    156  OD1       11.4920    7.4080   -0.3830 O.co2 176  ASP176     -0.2456
    157  OD2       10.0820    5.8340    0.1700 O.co2 176  ASP176     -0.2456
    158  N          5.9390    8.5990   13.3970 N.3   318  PHE318     -0.1241
    159  CA         7.0820    9.1700   12.7030 C.3   318  PHE318      0.1605
    160  C          8.1000    9.6980   13.6940 C.2   318  PHE318      0.2264
    161  O          7.7400   10.1870   14.7700 O.2   318  PHE318     -0.2867
    162  CB         6.6070   10.2910   11.7850 C.3   318  PHE318      0.0534
    163  CG         5.8530    9.8050   10.5860 C.ar  318  PHE318     -0.0203
    164  CD1        6.4990    9.6160    9.3720 C.ar  318  PHE318     -0.0042
    165  CD2        4.4930    9.5030   10.6710 C.ar  318  PHE318     -0.0042
    166  CE1        5.8250    9.1570    8.2810 C.ar  318  PHE318     -0.0003
    167  CE2        3.8100    9.0470    9.5720 C.ar  318  PHE318     -0.0003
    168  CZ         4.4710    8.8730    8.3680 C.ar  318  PHE318     -0.0000
@<TRIPOS>BOND
     1    66    65    1
     2    64    65    1
     3    64    61    1
     4    63    62    2
     5    71    70    2
     6    65    67    1
     7    70    69    1
     8   153   152    2
     9   152   151    1
    10    62    61    1
    11    61    60    1
    12    68    69    1
    13    59    58    1
    14    69    72    1
    15    80    81    1
    16    80    79    1
    17    81    82    1
    18   146   145    2
    19    58    57    1
    20   151   150    1
    21   151   154    1
    22    57    56    1
    23    54    53    2
    24   150   145   am
    25   145   144    1
    26    73    72    1
    27    72    74    1
    28    79    76    1
    29    76    75    1
    30    76    77    1
    31    56    55    1
    32   154   155    1
    33    55    52    1
    34   144   143    1
    35   144   147    1
    36    53    52    1
    37    83    77   am
    38    83    84    1
    39    52    51    1
    40    77    78    2
    41   134   132   am
    42    24    25    1
    43    90    89   ar
    44   155   156   ar
    45   155   157   ar
    46   147   149    1
    47   147   148    1
    48    25    26    1
    49    87    84    1
    50    87    88    1
    51    49    48    2
    52    84    85    1
    53   132   131    1
    54   132   133    2
    55   131   128    1
    56   130   129    2
    57    89    88    1
    58    89    91   ar
    59    26    28   am
    60    26    27    2
    61    86    85    2
    62    31    30    2
    63    48    47    1
    64    28    29    1
    65    85    92   am
    66   129   128    1
    67    45    43    1
    68   128   127    1
    69    22    23    2
    70    22    21    1
    71    30    29    1
    72    30    39   am
    73    46    47    1
    74    50    47    1
    75    92    93    1
    76    29    32    1
    77    21    20    1
    78    38    36    1
    79   127   120   am
    80    44    43    1
    81    43    40    1
    82    35    36    2
    83    35    34    1
    84    40    39    1
    85    40    41    1
    86    33    32    1
    87    33    34    1
    88    20    15   am
    89    36    37    1
    90   135   136    1
    91   140   139    1
    92   140   141    1
    93    93    94    1
    94    93    96    1
    95   120   121    2
    96   120   119    1
    97   139   136    1
    98   138   137    2
    99    41    42    2
   100    15    16    2
   101    15    14    1
   102    94    95    2
   103    94   104   am
   104   136   137    1
   105    96    97    1
   106   108   105    1
   107   104   105    1
   108   122   119    1
   109   122   123    1
   110   141   142    1
   111   118   119    1
   112   125   124   ar
   113    14    13    1
   114    14    17    1
   115   105   106    1
   116    12    11    2
   117   124   126   ar
   118   124   123    1
   119    13    11   am
   120    11    10    1
   121    97    98   ar
   122    97    99   ar
   123    17    18    1
   124    17    19    1
   125    98   100   ar
   126     7     6    1
   127    10     9    1
   128   106   107    2
   129   117   115   ar
   130     9     3   am
   131    99   101   ar
   132   114   115    1
   133   114   113    1
   134     5     6    1
   135     5     2    1
   136   115   116   ar
   137   100   102   ar
   138     6     8    1
   139     3     4    2
   140     3     2    1
   141   113   110    1
   142     1     2    1
   143   110   111    1
   144   110   109    1
   145   166   168   ar
   146   166   164   ar
   147   168   167   ar
   148   101   102   ar
   149   111   112    2
   150   102   103    1
   151   164   163   ar
   152   167   165   ar
   153   163   165   ar
   154   163   162    1
   155   162   159    1
   156   159   158    1
   157   159   160    1
   158   160   161    2
