@<TRIPOS>MOLECULE
tmp/2vo3A00.pdb
 179 170 0 0 0
SMALL
GASTEIGER

@<TRIPOS>ATOM
      1  N          8.3670   14.9510    7.9630 N.3    36  LEU36      -0.1231
      2  CA         8.2130   13.5140    8.1910 C.3    36  LEU36       0.1693
      3  C          9.4780   12.7240    7.8220 C.2    36  LEU36       0.2593
      4  O          9.5960   11.5440    8.1390 O.2    36  LEU36      -0.2718
      5  CB         7.0690   13.0000    7.2970 C.3    36  LEU36       0.0284
      6  CG         5.7120   13.6180    7.6040 C.3    36  LEU36       0.0019
      7  CD1        4.6740   13.1250    6.6350 C.3    36  LEU36       0.0001
      8  CD2        5.3290   13.2430    9.0280 C.3    36  LEU36       0.0001
      9  N         10.3780   13.3650    7.0830 N.am   37  GLY37      -0.1942
     10  CA        11.6340   12.7590    6.7200 C.3    37  GLY37       0.2014
     11  C         12.4080   13.6330    5.7710 C.2    37  GLY37       0.2640
     12  O         11.9070   14.6630    5.3030 O.2    37  GLY37      -0.2714
     13  N         13.6480   13.2250    5.5110 N.am   38  THR38      -0.1936
     14  CA        14.5390   13.9800    4.6550 C.3    38  THR38       0.2028
     15  C         15.2400   13.0690    3.6710 C.2    38  THR38       0.2642
     16  O         15.3070   11.8330    3.8390 O.2    38  THR38      -0.2714
     17  CB        15.6100   14.7650    5.4480 C.3    38  THR38       0.1808
     18  OG1       16.4120   13.8450    6.1840 O.3    38  THR38      -0.2208
     19  CG2       14.9890   15.8020    6.3980 C.3    38  THR38       0.0379
     20  N         15.7300   13.6950    2.6140 N.am   39  GLY39      -0.1954
     21  CA        16.5450   13.0210    1.6110 C.3    39  GLY39       0.1869
     22  C         17.6960   13.9450    1.2380 C.2    39  GLY39       0.2309
     23  O         17.7770   15.0780    1.7270 O.2    39  GLY39      -0.2863
     24  N         18.2320   15.6880   -1.3830 N.3    41  PHE41      -0.1227
     25  CA        17.9150   16.9170   -2.1110 C.3    41  PHE41       0.1740
     26  C         16.5210   17.4640   -1.7760 C.2    41  PHE41       0.2635
     27  O         15.9750   18.2860   -2.5030 O.2    41  PHE41      -0.2714
     28  CB        18.1560   16.7370   -3.6160 C.3    41  PHE41       0.0548
     29  CG        17.5490   15.4800   -4.2040 C.ar   41  PHE41      -0.0202
     30  CD1       18.3300   14.3990   -4.5180 C.ar   41  PHE41      -0.0042
     31  CD2       16.1930   15.3980   -4.4280 C.ar   41  PHE41      -0.0042
     32  CE1       17.7710   13.2480   -5.0760 C.ar   41  PHE41      -0.0003
     33  CE2       15.6210   14.2570   -4.9540 C.ar   41  PHE41      -0.0003
     34  CZ        16.4120   13.1820   -5.2830 C.ar   41  PHE41      -0.0000
     35  N         15.9810   17.0610   -0.6290 N.am   42  GLY42      -0.1718
     36  CA        14.7440   17.6520   -0.1530 C.2    42  GLY42       0.1480
     37  C         14.1650   17.0400    1.0990 C.2    42  GLY42       0.2820
     38  O         14.8600   16.3580    1.8590 O.2    42  GLY42      -0.2669
     39  N         12.8770   17.3090    1.3250 N.am   43  ARG43      -0.1929
     40  CA        12.1750   16.8120    2.4980 C.3    43  ARG43       0.1732
     41  C         10.7400   16.4610    2.1820 C.2    43  ARG43       0.2616
     42  O         10.1670   16.9480    1.1870 O.2    43  ARG43      -0.2715
     43  CB        12.2300   17.8350    3.6430 C.3    43  ARG43       0.0348
     44  CG        11.4650   19.1560    3.4280 C.3    43  ARG43       0.0492
     45  CD        11.6580   20.0880    4.6400 C.3    43  ARG43       0.2205
     46  NE        13.0840   20.2670    4.9030 N.pl3  43  ARG43      -0.0865
     47  CZ        13.6800   20.3270    6.0990 C.cat  43  ARG43       0.5346
     48  NH1       13.0080   20.2360    7.2390 N.pl3  43  ARG43       0.1354
     49  NH2       14.9910   20.4760    6.1520 N.pl3  43  ARG43       0.1354
     50  N         10.1480   15.6450    3.0450 N.am   44  VAL44      -0.1977
     51  CA         8.7070   15.4020    2.9640 C.3    44  VAL44       0.1596
     52  C          8.0520   16.0090    4.2160 C.2    44  VAL44       0.2287
     53  O          8.5410   15.8160    5.3300 O.2    44  VAL44      -0.2864
     54  CB         8.4100   13.9020    2.7780 C.3    44  VAL44       0.0276
     55  CG1        6.8960   13.6000    3.0190 C.3    44  VAL44       0.0022
     56  CG2        8.8470   13.4570    1.3470 C.3    44  VAL44       0.0022
     57  N          1.0130   14.2680    2.4270 N.3    57  ALA57      -0.1245
     58  CA         2.4590   14.3060    2.5060 C.3    57  ALA57       0.1562
     59  C          2.9190   15.1240    1.3110 C.2    57  ALA57       0.2260
     60  O          2.5730   14.8180    0.1770 O.2    57  ALA57      -0.2867
     61  CB         3.0400   12.9070    2.4380 C.3    57  ALA57       0.0290
     62  N          6.1870   16.3600   -0.7440 N.3    59  LYS59      -0.1245
     63  CA         7.6080   16.2100   -1.0310 C.3    59  LYS59       0.1561
     64  C          8.0850   17.5010   -1.6490 C.2    59  LYS59       0.2260
     65  O          7.5290   17.9330   -2.6540 O.2    59  LYS59      -0.2867
     66  CB         7.8380   15.0430   -1.9930 C.3    59  LYS59       0.0271
     67  CG         9.3040   14.7920   -2.3080 C.3    59  LYS59       0.0035
     68  CD         9.6770   13.3140   -2.1140 C.3    59  LYS59       0.0206
     69  CE         9.4960   12.5340   -3.3400 C.3    59  LYS59       0.1093
     70  NZ        10.2690   11.2690   -3.2770 N.3    59  LYS59      -0.1314
     71  N         11.3980   19.3590   -3.1800 N.3    61  LEU61      -0.1245
     72  CA        12.7400   19.1030   -3.7220 C.3    61  LEU61       0.1561
     73  C         13.3670   20.4010   -4.1570 C.2    61  LEU61       0.2260
     74  O         12.7580   21.1690   -4.8710 O.2    61  LEU61      -0.2867
     75  CB        12.6620   18.1440   -4.9020 C.3    61  LEU61       0.0270
     76  CG        11.9750   16.7970   -4.6850 C.3    61  LEU61       0.0019
     77  CD1       12.0080   15.9930   -5.9970 C.3    61  LEU61       0.0001
     78  CD2       12.6260   15.9980   -3.4980 C.3    61  LEU61       0.0001
     79  N          0.7740    5.6220   -3.3720 N.3    91  THR91      -0.1218
     80  CA         0.2610    6.9810   -3.1790 C.3    91  THR91       0.1862
     81  C          0.5440    7.8080   -4.4420 C.2    91  THR91       0.2287
     82  O          1.6000    8.4340   -4.5650 O.2    91  THR91      -0.2866
     83  CB         0.9270    7.6870   -1.9610 C.3    91  THR91       0.1770
     84  OG1        2.3230    7.9520   -2.2230 O.3    91  THR91      -0.2211
     85  CG2        0.7790    6.8660   -0.6860 C.3    91  THR91       0.0375
     86  N          0.9760   13.9330   -2.0190 N.3   107  MET107     -0.1230
     87  CA         0.5430   12.5510   -2.0190 C.3   107  MET107      0.1702
     88  C         -0.3100   12.2380   -0.8250 C.2   107  MET107      0.2592
     89  O         -0.2370   12.9410    0.1710 O.2   107  MET107     -0.2718
     90  CB         1.7810   11.6410   -2.0030 C.3   107  MET107      0.0401
     91  CG         2.5820   11.7230   -3.3010 C.3   107  MET107      0.0596
     92  SD         4.2540   11.0610   -3.1320 S.3   107  MET107     -0.1393
     93  CE         4.9910   12.2170   -1.9900 C.3   107  MET107      0.0692
     94  N         -1.0830   11.1420   -0.9030 N.am  108  GLU108     -0.1966
     95  CA        -1.7930   10.6150    0.2730 C.3   108  GLU108      0.1733
     96  C         -0.8200   10.4440    1.4260 C.2   108  GLU108      0.2616
     97  O          0.2780    9.8690    1.2470 O.2   108  GLU108     -0.2715
     98  CB        -2.4670    9.2520   -0.0350 C.3   108  GLU108      0.0429
     99  CG        -3.1680    8.6170    1.1710 C.3   108  GLU108      0.1163
    100  CD        -3.7920    7.2640    0.8580 C.2   108  GLU108      0.3649
    101  OE1       -3.7800    6.8650   -0.3280 O.co2 108  GLU108     -0.2457
    102  OE2       -4.2540    6.5910    1.7980 O.co2 108  GLU108     -0.2457
    103  N         -1.2220   10.9090    2.6070 N.am  109  TYR109     -0.1960
    104  CA        -0.4400   10.7560    3.8440 C.3   109  TYR109      0.1771
    105  C         -0.6570    9.3960    4.5090 C.2   109  TYR109      0.2619
    106  O         -1.7950    8.9740    4.7430 O.2   109  TYR109     -0.2715
    107  CB        -0.8010   11.8750    4.8220 C.3   109  TYR109      0.0574
    108  CG        -0.2260   11.7770    6.2160 C.ar  109  TYR109     -0.0198
    109  CD1        1.1270   11.5240    6.4270 C.ar  109  TYR109     -0.0009
    110  CD2       -1.0390   11.9730    7.3410 C.ar  109  TYR109     -0.0009
    111  CE1        1.6550   11.4380    7.7100 C.ar  109  TYR109      0.0417
    112  CE2       -0.5170   11.9020    8.6360 C.ar  109  TYR109      0.0417
    113  CZ         0.8210   11.6400    8.8260 C.ar  109  TYR109      0.1957
    114  OH         1.3360   11.5820   10.1140 O.3   109  TYR109     -0.2866
    115  N          0.4560    8.7330    4.8280 N.am  110  ALA110     -0.1977
    116  CA         0.4830    7.4710    5.5590 C.3   110  ALA110      0.1597
    117  C          0.8770    7.7500    7.0210 C.2   110  ALA110      0.2287
    118  O          2.0650    7.9430    7.3120 O.2   110  ALA110     -0.2864
    119  CB         1.4890    6.4780    4.9040 C.3   110  ALA110      0.0319
    120  N          7.1610    4.7450    9.0020 N.3   114  GLU114     -0.1245
    121  CA         7.9380    3.7840    8.2230 C.3   114  GLU114      0.1567
    122  C          7.8880    2.3960    8.8550 C.2   114  GLU114      0.2260
    123  O          7.9880    2.2520   10.1020 O.2   114  GLU114     -0.2867
    124  CB         9.3920    4.2350    8.1820 C.3   114  GLU114      0.0388
    125  CG         9.5990    5.5840    7.5200 C.3   114  GLU114      0.1160
    126  CD        11.0370    6.0500    7.5580 C.2   114  GLU114      0.3649
    127  OE1       11.8900    5.2700    8.0250 O.co2 114  GLU114     -0.2457
    128  OE2       11.2980    7.1860    7.1080 O.co2 114  GLU114     -0.2457
    129  N         12.5640    1.3420    5.1580 N.3   156  GLU156     -0.1231
    130  CA        12.5140    2.7990    5.2800 C.3   156  GLU156      0.1699
    131  C         11.4930    3.4130    4.3210 C.2   156  GLU156      0.2592
    132  O         10.9700    4.4920    4.5800 O.2   156  GLU156     -0.2718
    133  CB        13.8780    3.4200    4.9850 C.3   156  GLU156      0.0402
    134  CG        14.9860    3.1090    5.9920 C.3   156  GLU156      0.1161
    135  CD        15.8140    1.8550    5.6920 C.2   156  GLU156      0.3649
    136  OE1       15.2650    0.7710    5.3410 O.co2 156  GLU156     -0.2457
    137  OE2       17.0360    1.9430    5.8830 O.co2 156  GLU156     -0.2457
    138  N         11.2570    2.7170    3.2180 N.am  157  ASN157     -0.1974
    139  CA        10.4610    3.1770    2.0770 C.3   157  ASN157      0.1688
    140  C          9.1000    2.4760    1.9530 C.2   157  ASN157      0.2292
    141  O          8.4930    2.4890    0.8760 O.2   157  ASN157     -0.2864
    142  CB        11.2780    2.9560    0.7960 C.3   157  ASN157      0.1181
    143  CG        12.4920    3.8930    0.7010 C.2   157  ASN157      0.2629
    144  OD1       12.7070    4.7530    1.5720 O.2   157  ASN157     -0.2716
    145  ND2       13.2690    3.7430   -0.3660 N.am  157  ASN157     -0.0877
    146  N          5.6220    2.7100    3.9530 N.3   159  MET159     -0.1245
    147  CA         4.8530    3.4810    4.9140 C.3   159  MET159      0.1570
    148  C          3.6010    2.7060    5.3040 C.2   159  MET159      0.2261
    149  O          2.9420    2.1330    4.4430 O.2   159  MET159     -0.2867
    150  CB         4.4420    4.8350    4.3140 C.3   159  MET159      0.0387
    151  CG         5.6070    5.6660    3.7270 C.3   159  MET159      0.0595
    152  SD         6.9850    5.8000    4.8870 S.3   159  MET159     -0.1393
    153  CE         6.2940    6.7540    6.2710 C.3   159  MET159      0.0692
    154  N          6.4730    3.7750   -1.2540 N.3   169  THR169     -0.1203
    155  CA         6.7650    5.1810   -1.5650 C.3   169  THR169      0.1994
    156  C          8.1550    5.3190   -2.2260 C.2   169  THR169      0.2617
    157  O          8.7060    4.3410   -2.7490 O.2   169  THR169     -0.2717
    158  CB         6.6020    6.0180   -0.2430 C.3   169  THR169      0.1784
    159  OG1        7.4440    5.4980    0.7980 O.3   169  THR169     -0.2211
    160  CG2        5.1980    5.9210    0.2260 C.3   169  THR169      0.0376
    161  N          8.7130    6.5280   -2.2450 N.am  170  ASP170     -0.1973
    162  CA        10.1030    6.7280   -2.6660 C.3   170  ASP170      0.1709
    163  C         10.3800    6.2350   -4.0820 C.2   170  ASP170      0.2293
    164  O         11.2140    5.3210   -4.3090 O.2   170  ASP170     -0.2864
    165  CB        11.0510    6.0370   -1.6670 C.3   170  ASP170      0.1436
    166  CG        10.9140    6.5950   -0.2530 C.2   170  ASP170      0.3671
    167  OD1       11.7760    7.3910    0.1260 O.co2 170  ASP170     -0.2456
    168  OD2        9.9840    6.2110    0.5020 O.co2 170  ASP170     -0.2456
    169  N          6.2430    8.9520   13.6530 N.3   312  PHE312     -0.1241
    170  CA         7.4080    9.4520   12.9070 C.3   312  PHE312      0.1605
    171  C          8.4610    9.9790   13.8740 C.2   312  PHE312      0.2264
    172  O          8.1290   10.4550   14.9520 O.2   312  PHE312     -0.2867
    173  CB         6.9940   10.5680   11.9440 C.3   312  PHE312      0.0534
    174  CG         6.1960   10.0870   10.7620 C.ar  312  PHE312     -0.0203
    175  CD1        6.8120    9.8790    9.5230 C.ar  312  PHE312     -0.0042
    176  CD2        4.8560    9.8080   10.8830 C.ar  312  PHE312     -0.0042
    177  CE1        6.0960    9.4230    8.4420 C.ar  312  PHE312     -0.0003
    178  CE2        4.1300    9.3590    9.7910 C.ar  312  PHE312     -0.0003
    179  CZ         4.7650    9.1540    8.5670 C.ar  312  PHE312     -0.0000
@<TRIPOS>BOND
     1    77    76    1
     2    34    32   ar
     3    34    33   ar
     4    32    30   ar
     5    33    31   ar
     6    75    76    1
     7    75    72    1
     8    74    73    2
     9    76    78    1
    10    82    81    2
    11    30    29   ar
    12    81    80    1
    13    31    29   ar
    14   164   163    2
    15    29    28    1
    16    73    72    1
    17   163   162    1
    18    72    71    1
    19    28    25    1
    20    79    80    1
    21    69    70    1
    22    69    68    1
    23    91    92    1
    24    91    90    1
    25    80    83    1
    26    92    93    1
    27   157   156    2
    28   162   161    1
    29   162   165    1
    30    65    64    2
    31    27    26    2
    32    67    68    1
    33    67    66    1
    34   161   156   am
    35   156   155    1
    36    84    83    1
    37    25    26    1
    38    25    24    1
    39    86    87    1
    40    87    90    1
    41    87    88    1
    42    66    63    1
    43    83    85    1
    44    26    35    1
    45   165   166    1
    46    64    63    1
    47   155   154    1
    48   155   158    1
    49    63    62    1
    50    94    88   am
    51    94    95    1
    52    88    89    2
    53    35    36    2
    54   145   143   am
    55   101   100   ar
    56   166   167   ar
    57   166   168   ar
    58   158   160    1
    59   158   159    1
    60    36    37    1
    61    98    95    1
    62    98    99    1
    63    60    59    2
    64    95    96    1
    65   143   142    1
    66   143   144    2
    67   142   139    1
    68   100    99    1
    69   100   102   ar
    70   141   140    2
    71    37    39   am
    72    37    38    2
    73    42    41    2
    74    22    21    1
    75    22    23    2
    76    97    96    2
    77    59    58    1
    78    39    40    1
    79    56    54    1
    80    96   103   am
    81    21    20    1
    82   140   139    1
    83   139   138    1
    84    41    40    1
    85    41    50   am
    86    57    58    1
    87    61    58    1
    88    40    43    1
    89   103   104    1
    90    20    15   am
    91    54    51    1
    92    54    55    1
    93    51    50    1
    94    51    52    1
    95   138   131   am
    96    44    43    1
    97    44    45    1
    98    15    16    2
    99    15    14    1
   100   151   150    1
   101   151   152    1
   102   104   105    1
   103   104   107    1
   104   146   147    1
   105    52    53    2
   106   150   147    1
   107   131   132    2
   108   131   130    1
   109   149   148    2
   110   105   106    2
   111   105   115   am
   112    45    46    1
   113    14    17    1
   114    14    13    1
   115   107   108    1
   116   115   116    1
   117   152   153    1
   118    46    47    2
   119   119   116    1
   120   147   148    1
   121   133   130    1
   122   133   134    1
   123   129   130    1
   124    12    11    2
   125   136   135   ar
   126    17    18    1
   127    17    19    1
   128    13    11   am
   129   116   117    1
   130   135   137   ar
   131   135   134    1
   132    11    10    1
   133    47    49    1
   134    47    48    1
   135   108   109   ar
   136   108   110   ar
   137   109   111   ar
   138     7     6    1
   139    10     9    1
   140   117   118    2
   141     9     3   am
   142   128   126   ar
   143     5     6    1
   144     5     2    1
   145   110   112   ar
   146   125   126    1
   147   125   124    1
   148   126   127   ar
   149     6     8    1
   150   111   113   ar
   151     3     4    2
   152     3     2    1
   153     1     2    1
   154   124   121    1
   155   121   122    1
   156   121   120    1
   157   177   179   ar
   158   177   175   ar
   159   179   178   ar
   160   112   113   ar
   161   113   114    1
   162   122   123    2
   163   175   174   ar
   164   178   176   ar
   165   174   176   ar
   166   174   173    1
   167   173   170    1
   168   170   169    1
   169   170   171    1
   170   171   172    2
