@<TRIPOS>MOLECULE
tmp/2vo5B00.pdb
 164 167 0 0 0
SMALL
GASTEIGER

@<TRIPOS>ATOM
      1  N        -26.9350   62.1860   43.9320 N.3   152  ASN152     -0.1240
      2  CA       -25.9070   62.1390   42.8860 C.3   152  ASN152      0.1653
      3  C        -26.4220   62.2810   41.4450 C.2   152  ASN152      0.2266
      4  O        -25.6310   62.5060   40.5380 O.2   152  ASN152     -0.2867
      5  CB       -25.0170   60.9140   43.0480 C.3   152  ASN152      0.1155
      6  CG       -24.0050   61.0680   44.2010 C.2   152  ASN152      0.2627
      7  OD1      -23.1610   61.9660   44.1850 O.2   152  ASN152     -0.2716
      8  ND2      -24.1020   60.1960   45.1930 N.am  152  ASN152     -0.0877
      9  N        -22.3440   62.6250   39.5100 N.3   172  TRP172     -0.1227
     10  CA       -21.8220   62.0500   40.7490 C.3   172  TRP172      0.1737
     11  C        -20.9260   63.1260   41.4480 C.2   172  TRP172      0.2595
     12  O        -20.5570   64.1260   40.8060 O.2   172  TRP172     -0.2718
     13  CB       -21.0730   60.7220   40.5090 C.3   172  TRP172      0.0564
     14  CG       -21.3140   59.7940   41.6380 C.ar  172  TRP172      0.0003
     15  CD1      -20.5560   59.6770   42.7820 C.ar  172  TRP172      0.0946
     16  CD2      -22.4360   58.8970   41.8060 C.ar  172  TRP172      0.0152
     17  NE1      -21.1250   58.7520   43.6390 N.ar  172  TRP172     -0.2442
     18  CE2      -22.2730   58.2530   43.0690 C.ar  172  TRP172      0.0810
     19  CE3      -23.5500   58.5600   41.0110 C.ar  172  TRP172      0.0012
     20  CZ2      -23.1750   57.2970   43.5480 C.ar  172  TRP172      0.0191
     21  CZ3      -24.4310   57.6350   41.4860 C.ar  172  TRP172      0.0001
     22  CH2      -24.2310   56.9940   42.7520 C.ar  172  TRP172      0.0015
     23  N        -20.5550   62.9270   42.7240 N.am  173  ASP173     -0.1960
     24  CA       -19.7330   63.9350   43.4360 C.3   173  ASP173      0.1840
     25  C        -18.2760   63.9720   43.0580 C.2   173  ASP173      0.2622
     26  O        -17.4920   64.7010   43.6970 O.2   173  ASP173     -0.2715
     27  CB       -19.8880   63.9010   44.9730 C.3   173  ASP173      0.1450
     28  CG       -19.4710   62.5880   45.5900 C.2   173  ASP173      0.3671
     29  OD1      -18.9680   61.6960   44.8680 O.co2 173  ASP173     -0.2456
     30  OD2      -19.6540   62.4510   46.8200 O.co2 173  ASP173     -0.2456
     31  N        -17.9040   63.2340   42.0120 N.am  174  TRP174     -0.1974
     32  CA       -16.5700   63.4100   41.3910 C.3   174  TRP174      0.1640
     33  C        -16.6970   63.5130   39.9000 C.2   174  TRP174      0.2290
     34  O        -15.7030   63.4390   39.1770 O.2   174  TRP174     -0.2864
     35  CB       -15.6300   62.2430   41.7460 C.3   174  TRP174      0.0576
     36  CG       -16.3610   60.8930   41.8500 C.ar  174  TRP174      0.0006
     37  CD1      -16.6830   60.2220   42.9930 C.ar  174  TRP174      0.0946
     38  CD2      -16.8840   60.1100   40.7650 C.ar  174  TRP174      0.0152
     39  NE1      -17.3470   59.0830   42.6960 N.ar  174  TRP174     -0.2442
     40  CE2      -17.4780   58.9770   41.3320 C.ar  174  TRP174      0.0810
     41  CE3      -16.8830   60.2530   39.3560 C.ar  174  TRP174      0.0012
     42  CZ2      -18.0800   57.9800   40.5520 C.ar  174  TRP174      0.0191
     43  CZ3      -17.4540   59.2600   38.5920 C.ar  174  TRP174      0.0001
     44  CH2      -18.0520   58.1410   39.1890 C.ar  174  TRP174      0.0015
     45  N        -16.8650   49.4910   41.9100 N.3   369  TRP369     -0.1241
     46  CA       -17.9330   50.0730   42.6920 C.3   369  TRP369      0.1605
     47  C        -19.2330   50.2030   41.8430 C.2   369  TRP369      0.2264
     48  O        -19.1900   50.4750   40.6190 O.2   369  TRP369     -0.2867
     49  CB       -17.3940   51.3740   43.2240 C.3   369  TRP369      0.0550
     50  CG       -18.3360   52.4910   43.5600 C.ar  369  TRP369      0.0003
     51  CD1      -18.8450   52.7960   44.8130 C.ar  369  TRP369      0.0946
     52  CD2      -18.7500   53.5610   42.6880 C.ar  369  TRP369      0.0152
     53  NE1      -19.6210   53.9250   44.7390 N.ar  369  TRP369     -0.2442
     54  CE2      -19.5790   54.4200   43.4520 C.ar  369  TRP369      0.0810
     55  CE3      -18.5670   53.8350   41.3150 C.ar  369  TRP369      0.0012
     56  CZ2      -20.1890   55.5410   42.8980 C.ar  369  TRP369      0.0191
     57  CZ3      -19.1900   54.9540   40.7630 C.ar  369  TRP369      0.0001
     58  CH2      -19.9870   55.7940   41.5580 C.ar  369  TRP369      0.0015
     59  N        -25.9730   54.0480   46.4860 N.3   398  CYS398     -0.1235
     60  CA       -26.2890   55.2560   47.2950 C.3   398  CYS398      0.1677
     61  C        -27.7800   55.6740   47.4840 C.2   398  CYS398      0.2270
     62  O        -28.0780   56.5730   48.2790 O.2   398  CYS398     -0.2867
     63  CB       -25.4780   56.4770   46.7980 C.3   398  CYS398      0.0956
     64  SG       -23.6850   56.5120   47.0930 S.3   398  CYS398     -0.0801
     65  N        -23.6440   49.6680   46.7480 N.3   435  ASN435     -0.1225
     66  CA       -22.8390   50.6060   47.5340 C.3   435  ASN435      0.1785
     67  C        -23.7040   51.4530   48.4730 C.2   435  ASN435      0.2597
     68  O        -24.5350   52.2220   48.0130 O.2   435  ASN435     -0.2718
     69  CB       -22.0510   51.5720   46.6250 C.3   435  ASN435      0.1169
     70  CG       -21.2180   52.5520   47.4300 C.2   435  ASN435      0.2627
     71  OD1      -20.3080   52.1490   48.1540 O.2   435  ASN435     -0.2716
     72  ND2      -21.5160   53.8170   47.3180 N.am  435  ASN435     -0.0877
     73  N        -23.5120   51.2950   49.7860 N.am  436  GLU436     -0.1979
     74  CA       -24.0690   52.2300   50.7880 C.3   436  GLU436      0.1602
     75  C        -25.5730   52.3650   50.9190 C.2   436  GLU436      0.2287
     76  O        -26.0440   53.2400   51.6720 O.2   436  GLU436     -0.2864
     77  CB       -23.4640   53.6400   50.5990 C.3   436  GLU436      0.0415
     78  CG       -22.0830   53.7510   51.2030 C.3   436  GLU436      0.1163
     79  CD       -21.3280   54.9700   50.7510 C.2   436  GLU436      0.3649
     80  OE1      -21.8610   55.7230   49.9060 O.co2 436  GLU436     -0.2457
     81  OE2      -20.1760   55.1520   51.2210 O.co2 436  GLU436     -0.2457
     82  N        -29.1650   58.3020   56.8400 N.3   444  TRP444     -0.1241
     83  CA       -29.0370   59.5570   56.0570 C.3   444  TRP444      0.1605
     84  C        -30.2360   60.5040   56.1770 C.2   444  TRP444      0.2264
     85  O        -30.2980   61.5110   55.4950 O.2   444  TRP444     -0.2867
     86  CB       -28.5990   59.3370   54.5960 C.3   444  TRP444      0.0550
     87  CG       -27.1750   58.7270   54.4540 C.ar  444  TRP444      0.0003
     88  CD1      -26.2680   58.5110   55.4460 C.ar  444  TRP444      0.0946
     89  CD2      -26.5280   58.3050   53.2310 C.ar  444  TRP444      0.0152
     90  NE1      -25.1150   57.9750   54.9270 N.ar  444  TRP444     -0.2442
     91  CE2      -25.2510   57.8280   53.5780 C.ar  444  TRP444      0.0810
     92  CE3      -26.9200   58.2870   51.8670 C.ar  444  TRP444      0.0012
     93  CZ2      -24.3480   57.3250   52.6270 C.ar  444  TRP444      0.0191
     94  CZ3      -26.0330   57.7820   50.9250 C.ar  444  TRP444      0.0001
     95  CH2      -24.7610   57.2970   51.3160 C.ar  444  TRP444      0.0015
     96  N        -15.5170   57.5360   56.4740 N.3   507  TRP507     -0.1241
     97  CA       -15.5690   58.9030   55.9420 C.3   507  TRP507      0.1605
     98  C        -15.5380   59.9590   57.0420 C.2   507  TRP507      0.2264
     99  O        -15.9810   61.1060   56.8420 O.2   507  TRP507     -0.2867
    100  CB       -16.7620   59.0670   54.9830 C.3   507  TRP507      0.0550
    101  CG       -16.4550   58.3850   53.7170 C.ar  507  TRP507      0.0003
    102  CD1      -16.9460   57.1950   53.2930 C.ar  507  TRP507      0.0946
    103  CD2      -15.4880   58.8110   52.7260 C.ar  507  TRP507      0.0152
    104  NE1      -16.3580   56.8400   52.0940 N.ar  507  TRP507     -0.2442
    105  CE2      -15.4650   57.8150   51.7180 C.ar  507  TRP507      0.0810
    106  CE3      -14.6370   59.9330   52.6010 C.ar  507  TRP507      0.0012
    107  CZ2      -14.6590   57.9160   50.5720 C.ar  507  TRP507      0.0191
    108  CZ3      -13.8130   60.0350   51.4330 C.ar  507  TRP507      0.0001
    109  CH2      -13.8420   59.0260   50.4540 C.ar  507  TRP507      0.0015
    110  N        -15.3880   63.7190   55.2150 N.3   511  TYR511     -0.1241
    111  CA       -16.7230   64.1850   55.6340 C.3   511  TYR511      0.1605
    112  C        -16.8550   64.5820   57.1280 C.2   511  TYR511      0.2264
    113  O        -17.5340   65.5590   57.4510 O.2   511  TYR511     -0.2867
    114  CB       -17.8480   63.2430   55.1510 C.3   511  TYR511      0.0534
    115  CG       -17.9250   63.2420   53.6550 C.ar  511  TYR511     -0.0201
    116  CD1      -18.5160   64.3120   52.9730 C.ar  511  TYR511     -0.0009
    117  CD2      -17.3750   62.1920   52.9020 C.ar  511  TYR511     -0.0009
    118  CE1      -18.5460   64.3410   51.5590 C.ar  511  TYR511      0.0417
    119  CE2      -17.3920   62.2110   51.4920 C.ar  511  TYR511      0.0417
    120  CZ       -17.9710   63.2870   50.8370 C.ar  511  TYR511      0.1957
    121  OH       -18.0120   63.3090   49.4740 O.3   511  TYR511     -0.2866
    122  N        -13.4690   51.5660   51.9780 N.3   529  GLU529     -0.1245
    123  CA       -13.3530   52.9670   51.5210 C.3   529  GLU529      0.1567
    124  C        -12.7990   53.8730   52.6050 C.2   529  GLU529      0.2260
    125  O        -13.2490   53.8100   53.7570 O.2   529  GLU529     -0.2867
    126  CB       -14.7350   53.5500   51.1390 C.3   529  GLU529      0.0388
    127  CG       -15.3440   53.0500   49.8320 C.3   529  GLU529      0.1160
    128  CD       -16.6070   53.7490   49.4400 C.2   529  GLU529      0.3649
    129  OE1      -16.8650   54.8780   49.9460 O.co2 529  GLU529     -0.2457
    130  OE2      -17.3710   53.1530   48.6270 O.co2 529  GLU529     -0.2457
    131  N        -20.0820   67.6000   48.3200 N.3   564  SER564     -0.1217
    132  CA       -20.9850   68.2500   49.2930 C.3   564  SER564      0.1889
    133  C        -20.2520   69.1810   50.2590 C.2   564  SER564      0.2288
    134  O        -20.8800   70.0100   50.9010 O.2   564  SER564     -0.2866
    135  CB       -21.9570   67.2510   50.0240 C.3   564  SER564      0.2089
    136  OG       -21.3200   66.1760   50.7450 O.3   564  SER564     -0.2183
    137  N        -10.5150   55.0240   48.6050 N.3   619  TRP619     -0.1241
    138  CA       -11.3070   55.7270   47.6710 C.3   619  TRP619      0.1605
    139  C        -10.4790   56.9590   47.2030 C.2   619  TRP619      0.2264
    140  O        -10.1850   57.8420   48.0440 O.2   619  TRP619     -0.2867
    141  CB       -12.6790   56.1100   48.3170 C.3   619  TRP619      0.0550
    142  CG       -13.5030   56.7640   47.2630 C.ar  619  TRP619      0.0003
    143  CD1      -13.4530   58.0720   46.8880 C.ar  619  TRP619      0.0946
    144  CD2      -14.3820   56.1160   46.3360 C.ar  619  TRP619      0.0152
    145  NE1      -14.2830   58.2840   45.8210 N.ar  619  TRP619     -0.2442
    146  CE2      -14.8590   57.0980   45.4570 C.ar  619  TRP619      0.0810
    147  CE3      -14.8310   54.8020   46.1770 C.ar  619  TRP619      0.0012
    148  CZ2      -15.7660   56.7960   44.3960 C.ar  619  TRP619      0.0191
    149  CZ3      -15.7410   54.5170   45.1360 C.ar  619  TRP619      0.0001
    150  CH2      -16.1660   55.4910   44.2680 C.ar  619  TRP619      0.0015
    151  N        -10.8630   62.4870   44.8780 N.3   630  TRP630     -0.1241
    152  CA       -10.0810   61.6230   45.7460 C.3   630  TRP630      0.1605
    153  C         -9.0930   60.6750   45.0090 C.2   630  TRP630      0.2264
    154  O         -8.4010   59.8470   45.6300 O.2   630  TRP630     -0.2867
    155  CB       -11.0410   60.8050   46.5650 C.3   630  TRP630      0.0550
    156  CG       -12.0520   61.6270   47.3960 C.ar  630  TRP630      0.0003
    157  CD1      -12.0010   61.8670   48.7580 C.ar  630  TRP630      0.0946
    158  CD2      -13.2950   62.1810   46.9470 C.ar  630  TRP630      0.0152
    159  NE1      -13.1060   62.5860   49.1590 N.ar  630  TRP630     -0.2442
    160  CE2      -13.9230   62.7820   48.0800 C.ar  630  TRP630      0.0810
    161  CE3      -13.9500   62.2330   45.7000 C.ar  630  TRP630      0.0012
    162  CZ2      -15.1530   63.4510   47.9870 C.ar  630  TRP630      0.0191
    163  CZ3      -15.1400   62.9110   45.6080 C.ar  630  TRP630      0.0001
    164  CH2      -15.7290   63.5180   46.7410 C.ar  630  TRP630      0.0015
@<TRIPOS>BOND
     1    43    44   ar
     2    43    41   ar
     3    34    33    2
     4    44    42   ar
     5    41    38   ar
     6     9    10    1
     7    33    32    1
     8    13    10    1
     9    13    14    1
    10     4     3    2
    11    42    40   ar
    12    48    47    2
    13    10    11    1
    14    57    55   ar
    15    57    58   ar
    16    38    40   ar
    17    38    36   ar
    18    12    11    2
    19    19    21   ar
    20    19    16   ar
    21    55    52   ar
    22    40    39   ar
    23    32    35    1
    24    32    31    1
    25     3     2    1
    26    11    23   am
    27    21    22   ar
    28    58    56   ar
    29    14    16   ar
    30    14    15   ar
    31    35    36    1
    32    16    18   ar
    33    47    46    1
    34    36    37   ar
    35    45    46    1
    36    31    25   am
    37    52    54   ar
    38    52    50   ar
    39    46    49    1
    40    39    37   ar
    41    23    24    1
    42    22    20   ar
    43    15    17   ar
    44     2     5    1
    45     2     1    1
    46    56    54   ar
    47     5     6    1
    48    25    24    1
    49    25    26    2
    50    18    20   ar
    51    18    17   ar
    52    49    50    1
    53    24    27    1
    54    54    53   ar
    55    50    51   ar
    56     7     6    2
    57     6     8   am
    58   150   148   ar
    59   150   149   ar
    60   148   146   ar
    61    53    51   ar
    62    29    28   ar
    63   151   152    1
    64    27    28    1
    65   153   154    2
    66   153   152    1
    67   149   147   ar
    68   146   145   ar
    69   146   144   ar
    70    28    30   ar
    71   163   161   ar
    72   163   164   ar
    73   161   158   ar
    74   152   155    1
    75   145   143   ar
    76   147   144   ar
    77   144   142   ar
    78    59    60    1
    79   155   156    1
    80    69    70    1
    81    69    66    1
    82   164   162   ar
    83    65    66    1
    84    63    64    1
    85    63    60    1
    86   143   142   ar
    87   158   156   ar
    88   158   160   ar
    89   139   138    1
    90   139   140    2
    91   142   141    1
    92    60    61    1
    93    72    70   am
    94   156   157   ar
    95    70    71    2
    96    61    62    2
    97    66    67    1
    98   138   141    1
    99   138   137    1
   100   162   160   ar
   101    68    67    2
   102   160   159   ar
   103   131   132    1
   104    67    73   am
   105   130   128   ar
   106   157   159   ar
   107   132   135    1
   108   132   133    1
   109   128   127    1
   110   128   129   ar
   111   121   120    1
   112    73    74    1
   113   127   126    1
   114    80    79   ar
   115   135   136    1
   116   133   134    2
   117   109   107   ar
   118   109   108   ar
   119   107   105   ar
   120    77    74    1
   121    77    78    1
   122    79    78    1
   123    79    81   ar
   124    74    75    1
   125   120   119   ar
   126   120   118   ar
   127    75    76    2
   128    94    95   ar
   129    94    92   ar
   130   126   123    1
   131    95    93   ar
   132   108   106   ar
   133   119   117   ar
   134   123   122    1
   135   123   124    1
   136   118   116   ar
   137   105   104   ar
   138   105   103   ar
   139    92    89   ar
   140   104   102   ar
   141   106   103   ar
   142   124   125    2
   143    93    91   ar
   144   103   101   ar
   145   117   115   ar
   146   116   115   ar
   147    89    91   ar
   148    89    87   ar
   149   102   101   ar
   150    91    90   ar
   151   115   114    1
   152   101   100    1
   153    87    86    1
   154    87    88   ar
   155    86    83    1
   156    90    88   ar
   157   100    97    1
   158   114   111    1
   159   110   111    1
   160    85    84    2
   161   111   112    1
   162    97    96    1
   163    97    98    1
   164    83    84    1
   165    83    82    1
   166    99    98    2
   167   112   113    2
