@<TRIPOS>MOLECULE
tmp/2vo7A01.pdb
 192 182 0 0 0
SMALL
GASTEIGER

@<TRIPOS>ATOM
      1  N          8.6890   15.1860    7.9920 N.3    36  LEU36      -0.1231
      2  CA         8.4580   13.7530    8.1880 C.3    36  LEU36       0.1693
      3  C          9.6610   12.9040    7.7890 C.2    36  LEU36       0.2593
      4  O          9.7010   11.7020    8.0800 O.2    36  LEU36      -0.2718
      5  CB         7.2920   13.3130    7.3200 C.3    36  LEU36       0.0284
      6  CG         5.9430   13.9860    7.5850 C.3    36  LEU36       0.0019
      7  CD1        4.9190   13.4670    6.6000 C.3    36  LEU36       0.0001
      8  CD2        5.5230   13.6970    8.9740 C.3    36  LEU36       0.0001
      9  N         10.6010   13.5060    7.0670 N.am   37  GLY37      -0.1942
     10  CA        11.7880   12.7770    6.6340 C.3    37  GLY37       0.2014
     11  C         12.6120   13.6310    5.7080 C.2    37  GLY37       0.2640
     12  O         12.1180   14.6550    5.1790 O.2    37  GLY37      -0.2714
     13  N         13.8590   13.2030    5.4950 N.am   38  THR38      -0.1936
     14  CA        14.8030   13.9550    4.6650 C.3    38  THR38       0.2028
     15  C         15.6340   13.0550    3.7690 C.2    38  THR38       0.2643
     16  O         15.7390   11.8530    3.9790 O.2    38  THR38      -0.2714
     17  CB        15.7590   14.8270    5.4990 C.3    38  THR38       0.1808
     18  OG1       16.5650   13.9810    6.3250 O.3    38  THR38      -0.2208
     19  CG2       14.9990   15.8100    6.3760 C.3    38  THR38       0.0379
     20  N         16.2030   13.6790    2.7460 N.am   39  GLY39      -0.1939
     21  CA        17.0150   13.0040    1.7470 C.3    39  GLY39       0.2014
     22  C         17.9980   13.9960    1.1410 C.2    39  GLY39       0.2640
     23  O         18.0340   15.1750    1.5230 O.2    39  GLY39      -0.2714
     24  N         18.7670   13.5230    0.1600 N.am   40  SER40      -0.1935
     25  CA        19.9090   14.2710   -0.3460 C.3    40  SER40       0.2055
     26  C         19.5030   15.5360   -1.1000 C.2    40  SER40       0.2643
     27  O         20.1180   16.5890   -0.9340 O.2    40  SER40      -0.2714
     28  CB        20.7680   13.3670   -1.2300 C.3    40  SER40       0.2130
     29  OG        19.9590   12.4260   -1.8970 O.3    40  SER40      -0.2179
     30  N         18.4490   15.4630   -1.8950 N.am   41  PHE41      -0.1973
     31  CA        18.0640   16.6480   -2.6820 C.3    41  PHE41       0.1639
     32  C         16.7870   17.3420   -2.1440 C.2    41  PHE41       0.2290
     33  O         16.3560   18.3820   -2.7000 O.2    41  PHE41      -0.2864
     34  CB        18.0630   16.3880   -4.2110 C.3    41  PHE41       0.0560
     35  CG        17.9230   14.9360   -4.6100 C.ar   41  PHE41      -0.0200
     36  CD1       16.8300   14.5080   -5.3520 C.ar   41  PHE41      -0.0042
     37  CD2       18.9110   13.9990   -4.2640 C.ar   41  PHE41      -0.0042
     38  CE1       16.7130   13.1670   -5.7300 C.ar   41  PHE41      -0.0003
     39  CE2       18.8000   12.6540   -4.6200 C.ar   41  PHE41      -0.0003
     40  CZ        17.7080   12.2350   -5.3530 C.ar   41  PHE41      -0.0000
     41  N         10.5310   15.7650    2.9860 N.3    44  VAL44      -0.1245
     42  CA         9.0850   15.5310    2.9460 C.3    44  VAL44       0.1561
     43  C          8.4700   16.1360    4.2130 C.2    44  VAL44       0.2260
     44  O          8.9380   15.8660    5.3300 O.2    44  VAL44      -0.2867
     45  CB         8.7770   14.0460    2.8360 C.3    44  VAL44       0.0252
     46  CG1        7.2870   13.7950    3.0240 C.3    44  VAL44       0.0019
     47  CG2        9.2750   13.5050    1.4560 C.3    44  VAL44       0.0019
     48  N          1.4340   14.8230    2.5530 N.3    57  ALA57      -0.1245
     49  CA         2.8960   14.7780    2.6210 C.3    57  ALA57       0.1562
     50  C          3.4590   15.4400    1.3770 C.2    57  ALA57       0.2260
     51  O          3.1940   15.0020    0.2480 O.2    57  ALA57      -0.2867
     52  CB         3.3850   13.3250    2.6970 C.3    57  ALA57       0.0290
     53  N          6.6680   16.3970   -0.7140 N.3    59  LYS59      -0.1245
     54  CA         8.1000   16.2270   -0.9980 C.3    59  LYS59       0.1561
     55  C          8.5560   17.4890   -1.6830 C.2    59  LYS59       0.2260
     56  O          7.9650   17.9160   -2.6780 O.2    59  LYS59      -0.2867
     57  CB         8.3310   15.0230   -1.9010 C.3    59  LYS59       0.0271
     58  CG         9.8020   14.7490   -2.2800 C.3    59  LYS59       0.0035
     59  CD         9.8870   13.2750   -2.8020 C.3    59  LYS59       0.0206
     60  CE        11.2190   12.9210   -3.3390 C.3    59  LYS59       0.1093
     61  NZ        11.2740   11.4950   -3.7130 N.3    59  LYS59      -0.1314
     62  N          1.0720    5.0410   -2.9900 N.3    91  VAL91      -0.1245
     63  CA         0.6470    6.3600   -2.5260 C.3    91  VAL91       0.1561
     64  C          0.1960    7.2090   -3.7180 C.2    91  VAL91       0.2260
     65  O          0.8520    7.2200   -4.7720 O.2    91  VAL91      -0.2867
     66  CB         1.7940    7.1010   -1.7570 C.3    91  VAL91       0.0252
     67  CG1        2.7740    7.7930   -2.7420 C.3    91  VAL91       0.0019
     68  CG2        1.2060    8.1260   -0.7770 C.3    91  VAL91       0.0019
     69  N          1.3520   14.4460   -1.9160 N.3   107  MET107     -0.1230
     70  CA         0.8440   13.1190   -1.9070 C.3   107  MET107      0.1702
     71  C         -0.0230   12.9080   -0.6850 C.2   107  MET107      0.2592
     72  O          0.0520   13.6450    0.3000 O.2   107  MET107     -0.2718
     73  CB         2.0180   12.1370   -1.8720 C.3   107  MET107      0.0401
     74  CG         3.0220   12.2740   -3.0370 C.3   107  MET107      0.0596
     75  SD         4.5590   11.3790   -2.7190 S.3   107  MET107     -0.1393
     76  CE         5.3980   12.5460   -1.6630 C.3   107  MET107      0.0692
     77  N         -0.8030   11.8510   -0.7330 N.am  108  GLU108     -0.1966
     78  CA        -1.5680   11.4130    0.4280 C.3   108  GLU108      0.1733
     79  C         -0.6690   11.1430    1.6480 C.2   108  GLU108      0.2616
     80  O          0.3970   10.4910    1.5140 O.2   108  GLU108     -0.2715
     81  CB        -2.3690   10.1740    0.0450 C.3   108  GLU108      0.0429
     82  CG        -3.4470    9.8260    1.0080 C.3   108  GLU108      0.1163
     83  CD        -4.6010    9.1250    0.3110 C.2   108  GLU108      0.3649
     84  OE1       -4.5360    7.8810    0.1640 O.co2 108  GLU108     -0.2457
     85  OE2       -5.5570    9.8240   -0.1000 O.co2 108  GLU108     -0.2457
     86  N         -1.0860   11.6450    2.8220 N.am  109  TYR109     -0.1960
     87  CA        -0.3080   11.4750    4.0830 C.3   109  TYR109      0.1771
     88  C         -0.6200   10.1110    4.6780 C.2   109  TYR109      0.2619
     89  O         -1.7940    9.7080    4.8160 O.2   109  TYR109     -0.2715
     90  CB        -0.5380   12.6230    5.0710 C.3   109  TYR109      0.0574
     91  CG         0.0000   12.4260    6.4880 C.ar  109  TYR109     -0.0198
     92  CD1        1.3460   12.1070    6.7160 C.ar  109  TYR109     -0.0009
     93  CD2       -0.8340   12.5650    7.6070 C.ar  109  TYR109     -0.0009
     94  CE1        1.8350   11.9280    8.0040 C.ar  109  TYR109      0.0417
     95  CE2       -0.3250   12.3700    8.9170 C.ar  109  TYR109      0.0417
     96  CZ         1.0050   12.0880    9.0950 C.ar  109  TYR109      0.1957
     97  OH         1.5250   11.8840   10.3540 O.3   109  TYR109     -0.2866
     98  N          0.4470    9.3540    4.9360 N.am  110  VAL110     -0.1977
     99  CA         0.3390    7.9920    5.4700 C.3   110  VAL110      0.1596
    100  C          0.7940    8.0010    6.9590 C.2   110  VAL110      0.2287
    101  O          1.9930    7.9430    7.2930 O.2   110  VAL110     -0.2864
    102  CB         1.1140    6.9670    4.6090 C.3   110  VAL110      0.0276
    103  CG1        0.8310    5.5770    5.0860 C.3   110  VAL110      0.0022
    104  CG2        0.7320    7.0740    3.1210 C.3   110  VAL110      0.0022
    105  N          6.8150    4.6980    9.0380 N.3   114  GLU114     -0.1245
    106  CA         7.5520    3.7730    8.1980 C.3   114  GLU114      0.1567
    107  C          7.5480    2.3630    8.7500 C.2   114  GLU114      0.2260
    108  O          7.6790    2.1640    9.9630 O.2   114  GLU114     -0.2867
    109  CB         9.0090    4.2300    8.0900 C.3   114  GLU114      0.0388
    110  CG         9.1940    5.6430    7.5730 C.3   114  GLU114      0.1160
    111  CD        10.6720    6.0670    7.5680 C.2   114  GLU114      0.3649
    112  OE1       11.5100    5.2950    8.0690 O.co2 114  GLU114     -0.2457
    113  OE2       10.9830    7.1590    7.0530 O.co2 114  GLU114     -0.2457
    114  N         14.0070    0.5790   -5.6780 N.3   153  ASP153     -0.1239
    115  CA        14.4590    0.9630   -4.3340 C.3   153  ASP153      0.1674
    116  C         13.6100    0.4090   -3.2310 C.2   153  ASP153      0.2266
    117  O         13.2500    1.1180   -2.3030 O.2   153  ASP153     -0.2867
    118  CB        14.4990    2.4740   -4.2470 C.3   153  ASP153      0.1410
    119  CG        15.4060    2.9760   -3.1390 C.2   153  ASP153      0.3668
    120  OD1       16.2880    2.2340   -2.6480 O.co2 153  ASP153     -0.2456
    121  OD2       15.1740    4.1160   -2.7710 O.co2 153  ASP153     -0.2456
    122  N         12.6620   -1.0020    0.1010 N.3   155  LYS155     -0.1245
    123  CA        13.2060   -1.0200    1.4680 C.3   155  LYS155      0.1561
    124  C         12.1530   -0.5340    2.4860 C.2   155  LYS155      0.2260
    125  O         11.2680    0.2160    2.1310 O.2   155  LYS155     -0.2867
    126  CB        14.4530   -0.1580    1.5690 C.3   155  LYS155      0.0271
    127  CG        14.2680    1.2950    1.2110 C.3   155  LYS155      0.0035
    128  CD        15.6060    2.0120    1.5160 C.3   155  LYS155      0.0206
    129  CE        15.6400    3.4290    1.0640 C.3   155  LYS155      0.1093
    130  NZ        17.0440    4.0030    1.0540 N.3   155  LYS155     -0.1314
    131  N         12.2240    1.6240    4.8060 N.3   157  GLU157     -0.1231
    132  CA        12.2060    3.0720    5.0150 C.3   157  GLU157      0.1699
    133  C         11.1690    3.7630    4.1200 C.2   157  GLU157      0.2592
    134  O         10.6710    4.8140    4.4720 O.2   157  GLU157     -0.2718
    135  CB        13.5770    3.7070    4.7700 C.3   157  GLU157      0.0402
    136  CG        14.6610    3.3210    5.8000 C.3   157  GLU157      0.1161
    137  CD        15.5030    2.1150    5.3860 C.2   157  GLU157      0.3649
    138  OE1       14.9370    1.1150    4.9220 O.co2 157  GLU157     -0.2457
    139  OE2       16.7370    2.1590    5.5590 O.co2 157  GLU157     -0.2457
    140  N         10.8350    3.1680    2.9930 N.am  158  ASN158     -0.1974
    141  CA         9.8470    3.7910    2.0690 C.3   158  ASN158      0.1688
    142  C          8.4950    3.0840    1.9840 C.2   158  ASN158      0.2292
    143  O          7.6800    3.3920    1.1120 O.2   158  ASN158     -0.2864
    144  CB        10.4770    3.9130    0.6980 C.3   158  ASN158      0.1181
    145  CG        11.6490    4.8880    0.6920 C.2   158  ASN158      0.2629
    146  OD1       11.7020    5.8310    1.4960 O.2   158  ASN158     -0.2716
    147  ND2       12.5520    4.6860   -0.2260 N.am  158  ASN158     -0.0877
    148  N          5.2400    2.7000    4.0040 N.3   160  LEU160     -0.1245
    149  CA         4.5210    3.3750    5.0850 C.3   160  LEU160      0.1561
    150  C          3.3080    2.5450    5.4020 C.2   160  LEU160      0.2260
    151  O          2.7340    1.9240    4.4940 O.2   160  LEU160     -0.2867
    152  CB         4.1210    4.8150    4.7020 C.3   160  LEU160      0.0270
    153  CG         5.1710    5.9630    4.7140 C.3   160  LEU160      0.0019
    154  CD1        5.2150    6.6850    6.0460 C.3   160  LEU160      0.0001
    155  CD2        6.6090    5.4960    4.3490 C.3   160  LEU160      0.0001
    156  N          5.8970    4.3660   -1.0060 N.3   170  THR170     -0.1203
    157  CA         6.2290    5.6880   -1.4140 C.3   170  THR170      0.1994
    158  C          7.5960    5.7060   -2.0540 C.2   170  THR170      0.2617
    159  O          8.3880    4.7490   -2.0480 O.2   170  THR170     -0.2717
    160  CB         6.2040    6.6500   -0.1620 C.3   170  THR170      0.1784
    161  OG1        7.3620    6.4310    0.6640 O.3   170  THR170     -0.2211
    162  CG2        4.9590    6.4220    0.6990 C.3   170  THR170      0.0376
    163  N          7.8170    6.8470   -2.6090 N.am  171  ASP171     -0.1973
    164  CA         8.9730    7.1950   -3.2950 C.3   171  ASP171      0.1709
    165  C          9.2520    6.4220   -4.5710 C.2   171  ASP171      0.2293
    166  O          9.3260    5.1980   -4.5940 O.2   171  ASP171     -0.2864
    167  CB        10.1630    7.2440   -2.4020 C.3   171  ASP171      0.1436
    168  CG        11.0670    8.3490   -2.8240 C.2   171  ASP171      0.3671
    169  OD1       11.9180    8.0790   -3.6860 O.co2 171  ASP171     -0.2456
    170  OD2       10.8010    9.5080   -2.4160 O.co2 171  ASP171     -0.2456
    171  N         13.8320    6.3720   -8.1240 N.3   174  PHE174     -0.1241
    172  CA        14.5960    5.5300   -9.0810 C.3   174  PHE174      0.1605
    173  C         13.7720    4.6950  -10.0410 C.2   174  PHE174      0.2264
    174  O         14.3250    3.9470  -10.8250 O.2   174  PHE174     -0.2867
    175  CB        15.5690    4.6270   -8.3300 C.3   174  PHE174      0.0534
    176  CG        16.6130    5.4010   -7.6090 C.ar  174  PHE174     -0.0203
    177  CD1       17.3500    6.3680   -8.2780 C.ar  174  PHE174     -0.0042
    178  CD2       16.8390    5.2100   -6.2570 C.ar  174  PHE174     -0.0042
    179  CE1       18.3060    7.1350   -7.5970 C.ar  174  PHE174     -0.0003
    180  CE2       17.8070    5.9560   -5.6000 C.ar  174  PHE174     -0.0003
    181  CZ        18.5260    6.9260   -6.2790 C.ar  174  PHE174     -0.0000
    182  N          6.2150    9.1010   13.6660 N.3   313  PHE313     -0.1241
    183  CA         7.3770    9.5970   12.9220 C.3   313  PHE313      0.1605
    184  C          8.4330   10.1820   13.8430 C.2   313  PHE313      0.2264
    185  O          8.1150   10.7940   14.8750 O.2   313  PHE313     -0.2867
    186  CB         6.9860   10.6810   11.8980 C.3   313  PHE313      0.0534
    187  CG         6.1680   10.1520   10.7390 C.ar  313  PHE313     -0.0203
    188  CD1        6.7730    9.8230    9.5390 C.ar  313  PHE313     -0.0042
    189  CD2        4.7920    9.9500   10.8700 C.ar  313  PHE313     -0.0042
    190  CE1        6.0230    9.3140    8.4740 C.ar  313  PHE313     -0.0003
    191  CE2        4.0580    9.4360    9.8260 C.ar  313  PHE313     -0.0003
    192  CZ         4.6720    9.1080    8.6220 C.ar  313  PHE313     -0.0000
@<TRIPOS>BOND
     1   174   173    2
     2   173   172    1
     3   172   175    1
     4   172   171    1
     5   175   176    1
     6   177   176   ar
     7   177   179   ar
     8   176   178   ar
     9   179   181   ar
    10   181   180   ar
    11   178   180   ar
    12    38    40   ar
    13    38    36   ar
    14   114   115    1
    15    40    39   ar
    16    36    35   ar
    17    65    64    2
    18    39    37   ar
    19    35    37   ar
    20    35    34    1
    21   166   165    2
    22   165   164    1
    23   115   118    1
    24   115   116    1
    25   118   119    1
    26    34    31    1
    27    64    63    1
    28    61    60    1
    29   169   168   ar
    30    60    59    1
    31   164   163    1
    32   164   167    1
    33   116   117    2
    34   119   121   ar
    35   119   120   ar
    36    74    75    1
    37    74    73    1
    38    62    63    1
    39   168   170   ar
    40   168   167    1
    41    59    58    1
    42    67    66    1
    43    75    76    1
    44    33    32    2
    45    31    32    1
    46    31    30    1
    47    56    55    2
    48   163   158   am
    49    63    66    1
    50    58    57    1
    51   158   159    2
    52   158   157    1
    53    69    70    1
    54    70    73    1
    55    70    71    1
    56    57    54    1
    57    29    28    1
    58    30    26   am
    59    66    68    1
    60    55    54    1
    61   157   156    1
    62   157   160    1
    63    28    25    1
    64    26    27    2
    65    26    25    1
    66    54    53    1
    67    77    71   am
    68    77    78    1
    69    71    72    2
    70    25    24    1
    71   147   145   am
    72   160   161    1
    73   160   162    1
    74    85    83   ar
    75    81    78    1
    76    81    82    1
    77   122   123    1
    78    24    22   am
    79    84    83   ar
    80    51    50    2
    81    83    82    1
    82    78    79    1
    83   145   144    1
    84   145   146    2
    85   144   141    1
    86   130   129    1
    87   129   128    1
    88   143   142    2
    89    22    23    2
    90    22    21    1
    91   127   128    1
    92   127   126    1
    93    50    49    1
    94    47    45    1
    95   123   126    1
    96   123   124    1
    97    80    79    2
    98    79    86   am
    99    21    20    1
   100   142   141    1
   101   141   140    1
   102   125   124    2
   103    48    49    1
   104    49    52    1
   105    20    15   am
   106    86    87    1
   107    45    42    1
   108    45    46    1
   109    42    41    1
   110    42    43    1
   111   140   133   am
   112   104   102    1
   113    15    16    2
   114    15    14    1
   115   148   149    1
   116    87    88    1
   117    87    90    1
   118   133   134    2
   119   133   132    1
   120    43    44    2
   121   155   153    1
   122   151   150    2
   123   102   103    1
   124   102    99    1
   125    14    13    1
   126    14    17    1
   127    88    89    2
   128    88    98   am
   129   152   153    1
   130   152   149    1
   131   153   154    1
   132   135   132    1
   133   135   136    1
   134   131   132    1
   135   138   137   ar
   136    98    99    1
   137    90    91    1
   138   149   150    1
   139    12    11    2
   140   137   139   ar
   141   137   136    1
   142    99   100    1
   143    13    11   am
   144    17    18    1
   145    17    19    1
   146    11    10    1
   147    91    92   ar
   148    91    93   ar
   149     7     6    1
   150    10     9    1
   151    92    94   ar
   152   100   101    2
   153   113   111   ar
   154     9     3   am
   155     5     6    1
   156     5     2    1
   157   111   110    1
   158   111   112   ar
   159   110   109    1
   160     6     8    1
   161    93    95   ar
   162     3     4    2
   163     3     2    1
   164     1     2    1
   165    94    96   ar
   166   109   106    1
   167   106   107    1
   168   106   105    1
   169   190   192   ar
   170   190   188   ar
   171   192   191   ar
   172   107   108    2
   173    95    96   ar
   174    96    97    1
   175   188   187   ar
   176   191   189   ar
   177   187   189   ar
   178   187   186    1
   179   186   183    1
   180   183   182    1
   181   183   184    1
   182   184   185    2
