@<TRIPOS>MOLECULE
tmp/2vo7A00.pdb
 121 117 0 0 0
SMALL
GASTEIGER

@<TRIPOS>ATOM
      1  N        -10.0170  -11.9020  -15.4460 N.3     1  SER1       -0.1202
      2  CA        -8.6050  -12.3980  -15.3430 C.3     1  SER1        0.2020
      3  C         -7.7110  -11.2870  -14.7900 C.2     1  SER1        0.2618
      4  O         -8.0180  -10.1110  -14.9500 O.2     1  SER1       -0.2717
      5  CB        -8.0840  -12.8190  -16.7140 C.3     1  SER1        0.2103
      6  OG        -6.9530  -13.6640  -16.5790 O.3     1  SER1       -0.2182
      7  N         -6.6050  -11.6610  -14.1550 N.am    2  VAL2       -0.1979
      8  CA        -5.6120  -10.6750  -13.7220 C.3     2  VAL2        0.1595
      9  C         -4.9530  -10.0870  -14.9610 C.2     2  VAL2        0.2287
     10  O         -4.7460   -8.8940  -15.0330 O.2     2  VAL2       -0.2864
     11  CB        -4.5640  -11.2880  -12.7670 C.3     2  VAL2        0.0276
     12  CG1       -3.3650  -10.3500  -12.5840 C.3     2  VAL2        0.0022
     13  CG2       -5.2050  -11.6060  -11.4330 C.3     2  VAL2        0.0022
     14  N         -7.5560   -7.4670  -16.1130 N.3     5  PHE5       -0.1227
     15  CA        -7.4120   -6.3540  -15.1800 C.3     5  PHE5        0.1736
     16  C         -6.1570   -5.5060  -15.4820 C.2     5  PHE5        0.2595
     17  O         -6.2310   -4.2900  -15.5680 O.2     5  PHE5       -0.2718
     18  CB        -7.3310   -6.8660  -13.7430 C.3     5  PHE5        0.0547
     19  CG        -6.9010   -5.8140  -12.7610 C.ar    5  PHE5       -0.0202
     20  CD1       -7.8150   -4.9090  -12.2580 C.ar    5  PHE5       -0.0042
     21  CD2       -5.5730   -5.6990  -12.3840 C.ar    5  PHE5       -0.0042
     22  CE1       -7.4180   -3.9230  -11.3620 C.ar    5  PHE5       -0.0003
     23  CE2       -5.1730   -4.7180  -11.4960 C.ar    5  PHE5       -0.0003
     24  CZ        -6.1060   -3.8240  -10.9900 C.ar    5  PHE5       -0.0000
     25  N         -5.0190   -6.1610  -15.6410 N.am    6  LEU6       -0.1980
     26  CA        -3.7770   -5.4570  -15.9020 C.3     6  LEU6        0.1596
     27  C         -3.7660   -4.7750  -17.2670 C.2     6  LEU6        0.2287
     28  O         -3.3090   -3.6360  -17.3780 O.2     6  LEU6       -0.2864
     29  CB        -2.5930   -6.4030  -15.7630 C.3     6  LEU6        0.0297
     30  CG        -2.3060   -6.8390  -14.3200 C.3     6  LEU6        0.0022
     31  CD1       -1.3390   -8.0200  -14.3590 C.3     6  LEU6        0.0001
     32  CD2       -1.7390   -5.6530  -13.4720 C.3     6  LEU6        0.0001
     33  N         -2.8860    2.0730   -7.9470 N.3    87  PHE87      -0.1241
     34  CA        -2.9380    0.7450   -7.3680 C.3    87  PHE87       0.1605
     35  C         -3.1220    0.9140   -5.8430 C.2    87  PHE87       0.2264
     36  O         -2.6900    1.9250   -5.2780 O.2    87  PHE87      -0.2867
     37  CB        -1.6780   -0.0570   -7.7630 C.3    87  PHE87       0.0534
     38  CG        -1.8330   -1.5530   -7.6460 C.ar   87  PHE87      -0.0203
     39  CD1       -2.6830   -2.2590   -8.5160 C.ar   87  PHE87      -0.0042
     40  CD2       -1.1280   -2.2630   -6.6700 C.ar   87  PHE87      -0.0042
     41  CE1       -2.8140   -3.6530   -8.4170 C.ar   87  PHE87      -0.0003
     42  CE2       -1.2560   -3.6350   -6.5560 C.ar   87  PHE87      -0.0003
     43  CZ        -2.1000   -4.3460   -7.4320 C.ar   87  PHE87      -0.0000
     44  N          1.9420   -8.1040   -5.3310 N.3   139  LEU139     -0.1245
     45  CA         0.9030   -7.5770   -6.2260 C.3   139  LEU139      0.1561
     46  C          1.3610   -6.2550   -6.8670 C.2   139  LEU139      0.2260
     47  O          1.1360   -6.0120   -8.0470 O.2   139  LEU139     -0.2867
     48  CB        -0.3920   -7.3490   -5.4600 C.3   139  LEU139      0.0270
     49  CG        -1.1030   -8.6240   -4.9820 C.3   139  LEU139      0.0019
     50  CD1       -2.2930   -8.2920   -4.1010 C.3   139  LEU139      0.0001
     51  CD2       -1.5260   -9.4770   -6.2220 C.3   139  LEU139      0.0001
     52  N          3.8910   -6.8730   -9.5510 N.3   142  GLU142     -0.1245
     53  CA         3.1370   -7.4250  -10.6840 C.3   142  GLU142      0.1567
     54  C          2.4980   -6.2960  -11.5200 C.2   142  GLU142      0.2260
     55  O          2.6080   -6.2960  -12.7510 O.2   142  GLU142     -0.2867
     56  CB         2.0790   -8.4450  -10.2150 C.3   142  GLU142      0.0388
     57  CG         1.3730   -9.0730  -11.4040 C.3   142  GLU142      0.1160
     58  CD         0.4360  -10.2080  -11.0470 C.2   142  GLU142      0.3649
     59  OE1       -0.1280  -10.2190   -9.9350 O.co2 142  GLU142     -0.2457
     60  OE2        0.2710  -11.0870  -11.8920 O.co2 142  GLU142     -0.2457
     61  N          3.6280  -16.4140   -6.4070 N.3   278  LYS278     -0.1245
     62  CA         2.2710  -16.4670   -5.8590 C.3   278  LYS278      0.1561
     63  C          1.7980  -17.8920   -5.5070 C.2   278  LYS278      0.2260
     64  O          0.9750  -18.0750   -4.5900 O.2   278  LYS278     -0.2867
     65  CB         1.2840  -15.7650   -6.7970 C.3   278  LYS278      0.0271
     66  CG         1.4930  -14.2220   -6.8190 C.3   278  LYS278      0.0035
     67  CD         0.8870  -13.5360   -8.0420 C.3   278  LYS278      0.0206
     68  CE        -0.6000  -13.3390   -7.8920 C.3   278  LYS278      0.1093
     69  NZ        -1.1870  -12.5780   -9.0430 N.3   278  LYS278     -0.1314
     70  N         -4.9390  -13.8130   -2.4640 N.3   288  TRP288     -0.1227
     71  CA        -4.4810  -12.6550   -3.2430 C.3   288  TRP288      0.1737
     72  C         -5.6100  -11.6540   -3.5400 C.2   288  TRP288      0.2595
     73  O         -5.3990  -10.4380   -3.4880 O.2   288  TRP288     -0.2718
     74  CB        -3.7850  -13.1370   -4.5200 C.3   288  TRP288      0.0564
     75  CG        -2.6020  -13.9550   -4.2450 C.ar  288  TRP288      0.0003
     76  CD1       -2.5270  -15.3090   -4.2570 C.ar  288  TRP288      0.0946
     77  CD2       -1.3000  -13.4830   -3.8540 C.ar  288  TRP288      0.0152
     78  NE1       -1.2550  -15.7160   -3.9230 N.ar  288  TRP288     -0.2442
     79  CE2       -0.4850  -14.6100   -3.6660 C.ar  288  TRP288      0.0810
     80  CE3       -0.7480  -12.2130   -3.6510 C.ar  288  TRP288      0.0012
     81  CZ2        0.8650  -14.5100   -3.2970 C.ar  288  TRP288      0.0191
     82  CZ3        0.5980  -12.1110   -3.3000 C.ar  288  TRP288      0.0001
     83  CH2        1.3880  -13.2470   -3.1180 C.ar  288  TRP288      0.0015
     84  N         -6.8250  -12.1490   -3.7960 N.am  289  ILE289     -0.1980
     85  CA        -7.9560  -11.2480   -4.0580 C.3   289  ILE289      0.1595
     86  C         -8.3550  -10.4720   -2.8050 C.2   289  ILE289      0.2287
     87  O         -8.6890   -9.3070   -2.8840 O.2   289  ILE289     -0.2864
     88  CB        -9.2480  -11.9650   -4.5900 C.3   289  ILE289      0.0276
     89  CG1       -8.9520  -12.9300   -5.7420 C.3   289  ILE289      0.0022
     90  CG2      -10.2960  -10.9100   -5.0080 C.3   289  ILE289      0.0022
     91  CD1       -8.6190  -12.2510   -7.0440 C.3   289  ILE289      0.0001
     92  N         -5.6400   -7.7970   -2.2220 N.3   292  TYR292     -0.1227
     93  CA        -5.9410   -6.7050   -3.1480 C.3   292  TYR292      0.1736
     94  C         -7.1590   -5.8770   -2.7100 C.2   292  TYR292      0.2595
     95  O         -7.1570   -4.6460   -2.7920 O.2   292  TYR292     -0.2718
     96  CB        -6.1580   -7.2260   -4.5880 C.3   292  TYR292      0.0548
     97  CG        -6.6100   -6.1190   -5.5160 C.ar  292  TYR292     -0.0200
     98  CD1       -5.6820   -5.3280   -6.1980 C.ar  292  TYR292     -0.0009
     99  CD2       -7.9590   -5.8160   -5.6610 C.ar  292  TYR292     -0.0009
    100  CE1       -6.0970   -4.2810   -7.0260 C.ar  292  TYR292      0.0417
    101  CE2       -8.3850   -4.7870   -6.4820 C.ar  292  TYR292      0.0417
    102  CZ        -7.4470   -4.0190   -7.1640 C.ar  292  TYR292      0.1957
    103  OH        -7.8780   -2.9970   -7.9700 O.3   292  TYR292     -0.2866
    104  N         -8.2160   -6.5650   -2.2800 N.am  293  GLN293     -0.1979
    105  CA        -9.4450   -5.8920   -1.8260 C.3   293  GLN293      0.1601
    106  C         -9.3100   -5.2410   -0.4490 C.2   293  GLN293      0.2287
    107  O        -10.1880   -4.4840   -0.0380 O.2   293  GLN293     -0.2864
    108  CB       -10.6300   -6.8720   -1.8150 C.3   293  GLN293      0.0394
    109  CG       -11.0350   -7.3300   -3.1950 C.3   293  GLN293      0.0908
    110  CD       -12.2020   -8.3320   -3.1810 C.2   293  GLN293      0.2608
    111  OE1      -13.0730   -8.2750   -4.0390 O.2   293  GLN293     -0.2717
    112  NE2      -12.2150   -9.2400   -2.2080 N.am  293  GLN293     -0.0878
    113  N         -9.4040   -6.8330    2.3520 N.3   295  LYS295     -0.1245
    114  CA       -10.3980   -7.5150    3.1910 C.3   295  LYS295      0.1561
    115  C         -9.7470   -8.3080    4.3210 C.2   295  LYS295      0.2260
    116  O        -10.4330   -8.7900    5.2180 O.2   295  LYS295     -0.2867
    117  CB       -11.2870   -8.4380    2.3400 C.3   295  LYS295      0.0271
    118  CG       -12.3400   -7.6940    1.5230 C.3   295  LYS295      0.0035
    119  CD       -13.2810   -8.6560    0.7770 C.3   295  LYS295      0.0206
    120  CE       -14.3120   -7.8710   -0.0710 C.3   295  LYS295      0.1093
    121  NZ       -14.9350   -8.6480   -1.2060 N.3   295  LYS295     -0.1314
@<TRIPOS>BOND
     1    28    27    2
     2    27    26    1
     3     5     6    1
     4     5     2    1
     5    14    15    1
     6    26    29    1
     7    26    25    1
     8    29    30    1
     9    25    16   am
    10    17    16    2
    11    16    15    1
    12     1     2    1
    13     2     3    1
    14    15    18    1
    15    10     9    2
    16     9     8    1
    17     4     3    2
    18     3     7   am
    19    31    30    1
    20    30    32    1
    21     7     8    1
    22    18    19    1
    23     8    11    1
    24    11    12    1
    25    11    13    1
    26    19    21   ar
    27    19    20   ar
    28    55    54    2
    29    21    23   ar
    30    20    22   ar
    31    60    58   ar
    32    54    53    1
    33    23    24   ar
    34    57    58    1
    35    57    56    1
    36    22    24   ar
    37    58    59   ar
    38    53    56    1
    39    53    52    1
    40    69    68    1
    41    39    41   ar
    42    39    38   ar
    43    41    43   ar
    44    47    46    2
    45    67    68    1
    46    67    66    1
    47   103   102    1
    48    33    34    1
    49    37    38    1
    50    37    34    1
    51    38    40   ar
    52    43    42   ar
    53    34    35    1
    54   102   100   ar
    55   102   101   ar
    56    91    89    1
    57   100    98   ar
    58    46    45    1
    59    66    65    1
    60    65    62    1
    61    40    42   ar
    62   101    99   ar
    63    61    62    1
    64    45    48    1
    65    45    44    1
    66    51    49    1
    67    98    97   ar
    68    62    63    1
    69    35    36    2
    70    89    88    1
    71    99    97   ar
    72    97    96    1
    73    63    64    2
    74    48    49    1
    75    90    88    1
    76    49    50    1
    77    88    85    1
    78    96    93    1
    79    74    75    1
    80    74    71    1
    81    76    75   ar
    82    76    78   ar
    83    75    77   ar
    84    85    84    1
    85    85    86    1
    86   111   110    2
    87    78    79   ar
    88    77    79   ar
    89    77    80   ar
    90    84    72   am
    91    79    81   ar
    92    80    82   ar
    93    72    73    2
    94    72    71    1
    95    82    83   ar
    96    81    83   ar
    97    71    70    1
    98   109   110    1
    99   109   108    1
   100   110   112   am
   101    93    94    1
   102    93    92    1
   103    87    86    2
   104    95    94    2
   105    94   104   am
   106   104   105    1
   107   105   108    1
   108   105   106    1
   109   121   120    1
   110   106   107    2
   111   120   119    1
   112   119   118    1
   113   118   117    1
   114   117   114    1
   115   113   114    1
   116   114   115    1
   117   115   116    2
