@<TRIPOS>MOLECULE
tmp/2vohA00.pdb
 91 90 0 0 0
SMALL
GASTEIGER

@<TRIPOS>ATOM
      1  N        -20.4260    3.5230   23.1960 N.3     9  SER9       -0.1202
      2  CA       -20.0340    2.3240   22.4490 C.3     9  SER9        0.2020
      3  C        -18.8930    2.6220   21.4750 C.2     9  SER9        0.2618
      4  O        -17.9490    1.8330   21.3410 O.2     9  SER9       -0.2717
      5  CB       -21.2270    1.7620   21.6800 C.3     9  SER9        0.2103
      6  OG       -22.2110    1.2640   22.5730 O.3     9  SER9       -0.2182
      7  N        -18.9980    3.7590   20.7840 N.am   10  GLU10      -0.1979
      8  CA       -17.9750    4.1980   19.8340 C.3    10  GLU10       0.1602
      9  C        -16.6340    4.4140   20.5150 C.2    10  GLU10       0.2287
     10  O        -15.5990    3.9520   20.0390 O.2    10  GLU10      -0.2864
     11  CB       -18.4310    5.4720   19.1150 C.3    10  GLU10       0.0415
     12  CG       -19.5440    5.1750   18.1250 C.3    10  GLU10       0.1163
     13  CD       -20.2200    6.4060   17.5150 C.2    10  GLU10       0.3649
     14  OE1      -20.1390    7.5210   18.0840 O.co2  10  GLU10      -0.2457
     15  OE2      -20.8710    6.2240   16.4640 O.co2  10  GLU10      -0.2457
     16  N        -15.1870    1.0320   21.6300 N.3    13  HIS13      -0.1226
     17  CA       -14.6390    0.3440   20.4520 C.3    13  HIS13       0.1752
     18  C        -13.2590    0.8820   20.0940 C.2    13  HIS13       0.2595
     19  O        -12.3030    0.1140   19.9500 O.2    13  HIS13      -0.2718
     20  CB       -15.5740    0.4810   19.2400 C.3    13  HIS13       0.0759
     21  CG       -15.4390   -0.6280   18.2350 C.ar   13  HIS13       0.0818
     22  ND1      -16.3990   -0.8870   17.2770 N.ar   13  HIS13      -0.2268
     23  CD2      -14.4730   -1.5650   18.0580 C.ar   13  HIS13       0.1154
     24  CE1      -16.0190   -1.9170   16.5400 C.ar   13  HIS13       0.1986
     25  NE2      -14.8610   -2.3550   17.0020 N.ar   13  HIS13      -0.2212
     26  N        -13.1460    2.2010   19.9500 N.am   14  ILE14      -0.1980
     27  CA       -11.8550    2.8240   19.6270 C.3    14  ILE14       0.1595
     28  C        -10.7900    2.5040   20.6850 C.2    14  ILE14       0.2287
     29  O         -9.6440    2.1960   20.3400 O.2    14  ILE14      -0.2864
     30  CB       -11.9770    4.3400   19.4190 C.3    14  ILE14       0.0276
     31  CG1      -12.7830    4.6160   18.1430 C.3    14  ILE14       0.0022
     32  CG2      -10.5800    5.0020   19.3100 C.3    14  ILE14       0.0022
     33  CD1      -13.3810    5.9990   18.0830 C.3    14  ILE14       0.0001
     34  N        -15.9410    9.0260   11.4430 N.3   139  ILE139     -0.1231
     35  CA       -16.0490    7.5690   11.4580 C.3   139  ILE139      0.1692
     36  C        -17.5050    7.1140   11.3910 C.2   139  ILE139      0.2591
     37  O        -17.8460    6.2370   10.5940 O.2   139  ILE139     -0.2718
     38  CB       -15.3640    6.9750   12.7110 C.3   139  ILE139      0.0266
     39  CG1      -13.8350    7.1040   12.5630 C.3   139  ILE139      0.0019
     40  CG2      -15.7830    5.5290   12.9210 C.3   139  ILE139      0.0020
     41  CD1      -13.0480    6.7130   13.8020 C.3   139  ILE139      0.0001
     42  N        -18.3520    7.7070   12.2260 N.am  140  ARG140     -0.1980
     43  CA       -19.7820    7.4300   12.1710 C.3   140  ARG140      0.1597
     44  C        -20.3650    7.7180   10.7800 C.2   140  ARG140      0.2287
     45  O        -21.0580    6.8750   10.2040 O.2   140  ARG140     -0.2864
     46  CB       -20.5380    8.2360   13.2250 C.3   140  ARG140      0.0334
     47  CG       -21.9950    7.8110   13.3460 C.3   140  ARG140      0.0492
     48  CD       -22.7850    8.7300   14.2440 C.3   140  ARG140      0.2205
     49  NE       -22.4290    8.5590   15.6490 N.pl3 140  ARG140     -0.0865
     50  CZ       -23.0230    9.2120   16.6430 C.cat 140  ARG140      0.5346
     51  NH1      -23.9660   10.1110   16.3880 N.pl3 140  ARG140      0.1354
     52  NH2      -22.6490    8.9890   17.8960 N.pl3 140  ARG140      0.1354
     53  N        -19.4500    5.0230    7.8420 N.3   143  GLY143     -0.1210
     54  CA       -19.8120    3.6100    7.9140 C.3   143  GLY143      0.1956
     55  C        -19.3150    2.9000    9.1460 C.2   143  GLY143      0.2612
     56  O        -19.5560    1.7080    9.3060 O.2   143  GLY143     -0.2717
     57  N        -18.6250    3.6210   10.0250 N.am  144  GLY144     -0.1942
     58  CA       -18.0070    3.0040   11.1850 C.3   144  GLY144      0.2014
     59  C        -17.0100    1.9030   10.8440 C.2   144  GLY144      0.2639
     60  O        -16.5120    1.8070    9.7030 O.2   144  GLY144     -0.2714
     61  N        -16.7310    1.0590   11.8370 N.am  145  TRP145     -0.1959
     62  CA       -15.6400    0.0910   11.7430 C.3   145  TRP145      0.1771
     63  C        -16.0320   -1.1460   10.9250 C.2   145  TRP145      0.2620
     64  O        -15.2370   -1.6360   10.1280 O.2   145  TRP145     -0.2715
     65  CB       -15.1220   -0.3020   13.1440 C.3   145  TRP145      0.0590
     66  CG       -14.4350    0.8290   13.8220 C.ar  145  TRP145      0.0006
     67  CD1      -14.9430    1.6390   14.7970 C.ar  145  TRP145      0.0946
     68  CD2      -13.1180    1.3200   13.5380 C.ar  145  TRP145      0.0152
     69  NE1      -14.0200    2.5900   15.1470 N.ar  145  TRP145     -0.2442
     70  CE2      -12.8930    2.4240   14.3860 C.ar  145  TRP145      0.0810
     71  CE3      -12.1100    0.9350   12.6470 C.ar  145  TRP145      0.0012
     72  CZ2      -11.7080    3.1400   14.3730 C.ar  145  TRP145      0.0191
     73  CZ3      -10.9170    1.6440   12.6430 C.ar  145  TRP145      0.0001
     74  CH2      -10.7290    2.7330   13.5020 C.ar  145  TRP145      0.0015
     75  N        -17.2590   -1.6330   11.1060 N.am  146  GLU146     -0.1963
     76  CA       -17.7250   -2.8320   10.3830 C.3   146  GLU146      0.1733
     77  C        -18.1150   -2.5720    8.9320 C.2   146  GLU146      0.2616
     78  O        -18.0300   -3.4660    8.0970 O.2   146  GLU146     -0.2715
     79  CB       -18.9020   -3.4870   11.1080 C.3   146  GLU146      0.0429
     80  CG       -18.5770   -4.1270   12.4430 C.3   146  GLU146      0.1163
     81  CD       -18.2400   -3.1550   13.5450 C.2   146  GLU146      0.3649
     82  OE1      -18.6910   -1.9830   13.5000 O.co2 146  GLU146     -0.2457
     83  OE2      -17.5280   -3.5050   14.5150 O.co2 146  GLU146     -0.2457
     84  N        -18.5590   -1.3600    8.6350 N.am  147  ASP147     -0.1971
     85  CA       -19.1350   -1.0520    7.3280 C.3   147  ASP147      0.1709
     86  C        -18.2200   -0.1350    6.5130 C.2   147  ASP147      0.2293
     87  O        -18.1750   -0.2100    5.2860 O.2   147  ASP147     -0.2864
     88  CB       -20.5040   -0.4010    7.5420 C.3   147  ASP147      0.1436
     89  CG       -21.3580   -0.3760    6.3010 C.2   147  ASP147      0.3671
     90  OD1      -20.8430   -0.5790    5.1740 O.co2 147  ASP147     -0.2456
     91  OD2      -22.5740   -0.1410    6.4660 O.co2 147  ASP147     -0.2456
@<TRIPOS>BOND
     1    90    89   ar
     2    87    86    2
     3    89    91   ar
     4    89    88    1
     5    86    85    1
     6    85    88    1
     7    85    84    1
     8    53    54    1
     9    54    55    1
    10    78    77    2
    11    84    77   am
    12    77    76    1
    13    55    56    2
    14    55    57   am
    15    60    59    2
    16    57    58    1
    17    64    63    2
    18    45    44    2
    19    76    75    1
    20    76    79    1
    21    37    36    2
    22    44    43    1
    23    59    58    1
    24    59    61   am
    25    63    75   am
    26    63    62    1
    27    79    80    1
    28    36    35    1
    29    36    42   am
    30    34    35    1
    31    35    38    1
    32    62    61    1
    33    62    65    1
    34    43    42    1
    35    43    46    1
    36    80    81    1
    37    39    38    1
    38    39    41    1
    39    73    71   ar
    40    73    74   ar
    41    71    68   ar
    42    38    40    1
    43    65    66    1
    44    46    47    1
    45    47    48    1
    46    82    81   ar
    47    74    72   ar
    48    68    66   ar
    49    68    70   ar
    50    81    83   ar
    51    66    67   ar
    52    48    49    1
    53    72    70   ar
    54    70    69   ar
    55    67    69   ar
    56    49    50    2
    57    51    50    1
    58    15    13   ar
    59    24    25   ar
    60    24    22   ar
    61    50    52    1
    62    25    23   ar
    63    22    21   ar
    64    13    14   ar
    65    13    12    1
    66    23    21   ar
    67    33    31    1
    68    12    11    1
    69    31    30    1
    70    21    20    1
    71    11     8    1
    72    20    17    1
    73    32    30    1
    74    30    27    1
    75    27    26    1
    76    27    28    1
    77     8     9    1
    78     8     7    1
    79    19    18    2
    80    26    18   am
    81    10     9    2
    82    18    17    1
    83    29    28    2
    84    17    16    1
    85     7     3   am
    86     4     3    2
    87     3     2    1
    88     5     2    1
    89     5     6    1
    90     2     1    1
