@<TRIPOS>MOLECULE
tmp/2vorA00.pdb
 183 177 0 0 0
SMALL
GASTEIGER

@<TRIPOS>ATOM
      1  N         -3.8430  -33.2030   17.1290 N.3    44  THR44      -0.1203
      2  CA        -3.4860  -33.1670   15.7290 C.3    44  THR44       0.1994
      3  C         -2.2440  -32.3150   15.4920 C.2    44  THR44       0.2618
      4  O         -1.3390  -32.6800   14.7120 O.2    44  THR44      -0.2717
      5  CB        -4.6650  -32.5730   14.8480 C.3    44  THR44       0.1784
      6  OG1       -5.8550  -33.3620   15.0610 O.3    44  THR44      -0.2211
      7  CG2       -4.3110  -32.5670   13.3760 C.3    44  THR44       0.0376
      8  N         -2.2030  -31.1690   16.1150 N.am   45  ASN45      -0.1960
      9  CA        -1.1000  -30.2630   15.9220 C.3    45  ASN45       0.1819
     10  C         -0.4480  -29.8550   17.2500 C.2    45  ASN45       0.2622
     11  O         -1.1570  -29.6000   18.2560 O.2    45  ASN45      -0.2715
     12  CB        -1.6010  -29.0180   15.2900 C.3    45  ASN45       0.1195
     13  CG        -1.8730  -29.1870   13.7790 C.2    45  ASN45       0.2630
     14  OD1       -2.9890  -28.8940   13.3300 O.2    45  ASN45      -0.2716
     15  ND2       -0.8220  -29.5830   12.9810 N.am   45  ASN45      -0.0877
     16  N          0.9010  -29.7610   17.2360 N.am   46  GLY46      -0.1940
     17  CA         1.6090  -29.1900   18.3360 C.3    46  GLY46       0.2014
     18  C          2.0240  -30.2750   19.2440 C.2    46  GLY46       0.2639
     19  O          2.5760  -30.0100   20.2300 O.2    46  GLY46      -0.2714
     20  N          1.8120  -31.5330   18.9250 N.am   47  LYS47      -0.1963
     21  CA         2.1950  -32.5140   19.9150 C.3    47  LYS47       0.1728
     22  C          3.6830  -32.5100   20.2000 C.2    47  LYS47       0.2617
     23  O          4.1310  -32.7040   21.3640 O.2    47  LYS47      -0.2715
     24  CB         1.7710  -33.9650   19.5810 C.3    47  LYS47       0.0311
     25  CG         0.3350  -34.2210   19.1080 C.3    47  LYS47       0.0038
     26  CD         0.1170  -35.8070   18.9400 C.3    47  LYS47       0.0206
     27  CE         0.8030  -36.2690   17.6150 C.3    47  LYS47       0.1093
     28  NZ         0.3050  -35.3230   16.4750 N.3    47  LYS47      -0.1314
     29  N          4.4640  -32.4480   19.1250 N.am   48  THR48      -0.1937
     30  CA         5.9540  -32.4460   19.2530 C.3    48  THR48       0.2028
     31  C          6.4950  -31.2470   19.9800 C.2    48  THR48       0.2642
     32  O          7.2480  -31.3950   20.8740 O.2    48  THR48      -0.2714
     33  CB         6.7080  -32.6170   17.9060 C.3    48  THR48       0.1808
     34  OG1        6.6470  -33.9930   17.5820 O.3    48  THR48      -0.2208
     35  CG2        8.2420  -32.2470   18.0970 C.3    48  THR48       0.0379
     36  N          6.0570  -30.0730   19.5750 N.am   49  SER49      -0.1949
     37  CA         6.3350  -28.8820   20.2660 C.3    49  SER49       0.1924
     38  C          6.0380  -28.8840   21.7660 C.2    49  SER49       0.2314
     39  O          6.8690  -28.4000   22.5290 O.2    49  SER49      -0.2863
     40  CB         5.5740  -27.7580   19.6460 C.3    49  SER49       0.2116
     41  OG         6.0470  -27.5970   18.3560 O.3    49  SER49      -0.2180
     42  N          7.6090  -38.1040   17.6570 N.3    70  SER70      -0.1203
     43  CA         7.5310  -38.5990   16.2780 C.3    70  SER70       0.2005
     44  C          6.7830  -37.6270   15.4370 C.2    70  SER70       0.2460
     45  O          6.1230  -36.7100   15.9750 O.2    70  SER70      -0.2732
     46  CB         6.8980  -40.0020   16.1590 C.3    70  SER70       0.2103
     47  OG         5.6130  -39.9980   16.7230 O.3    70  SER70      -0.2182
     48  N          6.9690  -37.7380   14.1040 N.am   71  PRO71      -0.2728
     49  CA         8.0640  -38.5650   13.5160 C.3    71  PRO71       0.1401
     50  C          9.4380  -37.8690   13.6470 C.2    71  PRO71       0.2269
     51  O          9.4670  -36.6990   14.0080 O.2    71  PRO71      -0.2865
     52  CB         7.7220  -38.5870   11.9960 C.3    71  PRO71       0.0296
     53  CG         6.8840  -37.4240   11.7320 C.3    71  PRO71       0.0237
     54  CD         6.3170  -36.8520   13.1060 C.3    71  PRO71       0.0939
     55  N          4.8340  -38.7010   23.3320 N.3   141  GLU141     -0.1245
     56  CA         3.9920  -38.3770   22.2120 C.3   141  GLU141      0.1567
     57  C          3.3920  -39.6330   21.5030 C.2   141  GLU141      0.2260
     58  O          4.0640  -40.6440   21.2230 O.2   141  GLU141     -0.2867
     59  CB         4.8080  -37.5370   21.2080 C.3   141  GLU141      0.0388
     60  CG         4.0520  -37.1800   20.0170 C.3   141  GLU141      0.1160
     61  CD         4.8670  -36.3890   19.0240 C.2   141  GLU141      0.3649
     62  OE1        6.0720  -35.9980   19.2740 O.co2 141  GLU141     -0.2457
     63  OE2        4.2790  -36.1460   17.9560 O.co2 141  GLU141     -0.2457
     64  N         -4.6260  -29.1300   20.0330 N.3   163  PRO163     -0.2116
     65  CA        -5.7840  -28.9300   19.1320 C.3   163  PRO163      0.1372
     66  C         -5.9940  -30.0620   18.0960 C.2   163  PRO163      0.2244
     67  O         -5.0270  -30.5720   17.5020 O.2   163  PRO163     -0.2868
     68  CB        -5.4780  -27.6010   18.4860 C.3   163  PRO163      0.0268
     69  CG        -4.7010  -26.8240   19.6040 C.3   163  PRO163      0.0207
     70  CD        -3.8370  -27.8970   20.2220 C.3   163  PRO163      0.0892
     71  N          0.4140  -19.6660   17.6580 N.3   262  HIS262     -0.1226
     72  CA         0.1800  -21.0450   18.0070 C.3   262  HIS262      0.1752
     73  C          1.1850  -21.5810   19.0450 C.2   262  HIS262      0.2595
     74  O          0.8150  -22.4300   19.8860 O.2   262  HIS262     -0.2718
     75  CB         0.1310  -21.9470   16.7520 C.3   262  HIS262      0.0759
     76  CG         1.3970  -21.9680   15.9540 C.ar  262  HIS262      0.0818
     77  ND1        1.8170  -20.9020   15.1860 N.ar  262  HIS262     -0.2268
     78  CD2        2.3200  -22.9350   15.7840 C.ar  262  HIS262      0.1154
     79  CE1        2.9600  -21.1980   14.6000 C.ar  262  HIS262      0.1986
     80  NE2        3.2920  -22.4260   14.9530 N.ar  262  HIS262     -0.2212
     81  N          2.4220  -21.0850   19.0380 N.am  263  GLN263     -0.1979
     82  CA         3.4140  -21.5800   19.9800 C.3   263  GLN263      0.1601
     83  C          3.1450  -20.9880   21.3750 C.2   263  GLN263      0.2287
     84  O          3.5460  -21.5590   22.3600 O.2   263  GLN263     -0.2864
     85  CB         4.8750  -21.3060   19.5010 C.3   263  GLN263      0.0394
     86  CG         5.2880  -22.0680   18.2540 C.3   263  GLN263      0.0908
     87  CD         5.4930  -23.5510   18.5100 C.2   263  GLN263      0.2608
     88  OE1        5.0960  -24.0800   19.5400 O.2   263  GLN263     -0.2717
     89  NE2        6.0980  -24.2400   17.5560 N.am  263  GLN263     -0.0878
     90  N          0.1190  -20.8080   22.5870 N.3   265  HIS265     -0.1226
     91  CA        -0.8580  -21.7760   23.0480 C.3   265  HIS265      0.1752
     92  C         -0.2480  -23.1290   23.4110 C.2   265  HIS265      0.2596
     93  O         -0.6600  -23.7070   24.4240 O.2   265  HIS265     -0.2718
     94  CB        -1.9570  -21.9530   22.0020 C.3   265  HIS265      0.0759
     95  CG        -2.7460  -20.7140   21.7880 C.ar  265  HIS265      0.0818
     96  ND1       -3.4630  -20.1030   22.7990 N.ar  265  HIS265     -0.2268
     97  CD2       -2.8950  -19.9250   20.6960 C.ar  265  HIS265      0.1154
     98  CE1       -4.0100  -18.9850   22.3510 C.ar  265  HIS265      0.1986
     99  NE2       -3.6840  -18.8530   21.0780 N.ar  265  HIS265     -0.2212
    100  N          0.6980  -23.6540   22.6140 N.am  266  ASN266     -0.1974
    101  CA         1.5150  -24.7970   23.0100 C.3   266  ASN266      0.1688
    102  C          2.2280  -24.5170   24.3420 C.2   266  ASN266      0.2292
    103  O          2.2110  -25.3410   25.2480 O.2   266  ASN266     -0.2864
    104  CB         2.5420  -25.2140   21.8830 C.3   266  ASN266      0.1181
    105  CG         1.8380  -25.7100   20.5930 C.2   266  ASN266      0.2629
    106  OD1        0.6950  -26.1750   20.6670 O.2   266  ASN266     -0.2716
    107  ND2        2.5160  -25.6260   19.4290 N.am  266  ASN266     -0.0877
    108  N         10.2290  -26.4750   13.0460 N.3   299  ARG299     -0.1231
    109  CA         8.9750  -25.6940   13.2350 C.3   299  ARG299      0.1694
    110  C          9.3420  -24.1830   13.2000 C.2   299  ARG299      0.2591
    111  O          9.9870  -23.6390   14.1440 O.2   299  ARG299     -0.2718
    112  CB         8.2660  -26.0620   14.5640 C.3   299  ARG299      0.0321
    113  CG         7.5080  -27.4220   14.5190 C.3   299  ARG299      0.0489
    114  CD         8.5340  -28.5790   14.2760 C.3   299  ARG299      0.2205
    115  NE         8.0410  -29.9630   14.4350 N.pl3 299  ARG299     -0.0865
    116  CZ         8.7730  -31.0840   14.3270 C.cat 299  ARG299      0.5346
    117  NH1       10.0870  -31.0480   14.0990 N.pl3 299  ARG299      0.1354
    118  NH2        8.2020  -32.2720   14.4740 N.pl3 299  ARG299      0.1354
    119  N          9.0120  -23.5420   12.0890 N.am  300  LEU300     -0.1980
    120  CA         9.4140  -22.1510   11.7900 C.3   300  LEU300      0.1596
    121  C         10.8360  -21.8540   12.3120 C.2   300  LEU300      0.2287
    122  O         11.0680  -20.9470   13.1390 O.2   300  LEU300     -0.2864
    123  CB         8.4250  -21.2280   12.4410 C.3   300  LEU300      0.0297
    124  CG         7.6750  -20.1510   11.6540 C.3   300  LEU300      0.0022
    125  CD1        8.1720  -20.0180   10.2690 C.3   300  LEU300      0.0001
    126  CD2        6.1820  -20.4150   11.7740 C.3   300  LEU300      0.0001
    127  N          9.6070  -25.2120    7.8650 N.3   312  ASP312     -0.1225
    128  CA         8.4840  -25.4620    8.7540 C.3   312  ASP312      0.1805
    129  C          7.7620  -26.7240    8.3860 C.2   312  ASP312      0.2598
    130  O          7.5410  -26.9800    7.2500 O.2   312  ASP312     -0.2718
    131  CB         7.5250  -24.2910    8.8330 C.3   312  ASP312      0.1424
    132  CG         6.3740  -24.5650    9.8360 C.2   312  ASP312      0.3668
    133  OD1        6.5460  -24.4340   11.0680 O.co2 312  ASP312     -0.2456
    134  OD2        5.2730  -24.9610    9.3930 O.co2 312  ASP312     -0.2456
    135  N          7.4010  -27.5350    9.3670 N.am  313  ALA313     -0.1966
    136  CA         6.9170  -28.8870    9.1050 C.3   313  ALA313      0.1728
    137  C          5.4270  -28.9120    8.8190 C.2   313  ALA313      0.2616
    138  O          4.8200  -29.9710    8.9480 O.2   313  ALA313     -0.2715
    139  CB         7.2640  -29.8470   10.3560 C.3   313  ALA313      0.0334
    140  N          4.8240  -27.7710    8.4820 N.am  314  ALA314     -0.1963
    141  CA         3.3400  -27.6660    8.2640 C.3   314  ALA314      0.1728
    142  C          2.8390  -28.6580    7.2160 C.2   314  ALA314      0.2616
    143  O          3.2650  -28.6260    6.0910 O.2   314  ALA314     -0.2715
    144  CB         2.9430  -26.2460    7.8560 C.3   314  ALA314      0.0334
    145  N          1.9550  -29.5620    7.5970 N.am  315  HIS315     -0.1973
    146  CA         1.5080  -30.5900    6.6780 C.3   315  HIS315      0.1656
    147  C          0.0010  -30.8240    6.7320 C.2   315  HIS315      0.2291
    148  O         -0.4860  -31.8620    6.3330 O.2   315  HIS315     -0.2864
    149  CB         2.2740  -31.8950    6.8620 C.3   315  HIS315      0.0771
    150  CG         2.2490  -32.4570    8.2510 C.ar  315  HIS315      0.0820
    151  ND1        1.1740  -33.1720    8.7570 N.ar  315  HIS315     -0.2267
    152  CD2        3.2100  -32.4980    9.2090 C.ar  315  HIS315      0.1154
    153  CE1        1.4580  -33.5860    9.9790 C.ar  315  HIS315      0.1986
    154  NE2        2.6760  -33.1640   10.2850 N.ar  315  HIS315     -0.2212
    155  N         -4.7030  -26.5520    9.1330 N.3   318  ALA318     -0.1231
    156  CA        -4.5820  -25.7840   10.3530 C.3   318  ALA318      0.1694
    157  C         -3.1100  -25.3770   10.5630 C.2   318  ALA318      0.2592
    158  O         -2.8260  -24.2410   10.9030 O.2   318  ALA318     -0.2718
    159  CB        -5.0990  -26.6130   11.5280 C.3   318  ALA318      0.0304
    160  N         -2.1670  -26.2850   10.3280 N.am  319  GLY319     -0.1957
    161  CA        -0.7030  -25.9920   10.4480 C.3   319  GLY319      0.1869
    162  C         -0.2360  -24.9680    9.4050 C.2   319  GLY319      0.2309
    163  O          0.4930  -24.0440    9.6950 O.2   319  GLY319     -0.2863
    164  N         -1.5310  -21.5890   10.2900 N.3   322  ALA322     -0.1231
    165  CA        -0.7560  -21.0370   11.4210 C.3   322  ALA322      0.1694
    166  C          0.5870  -20.5460   10.8990 C.2   322  ALA322      0.2591
    167  O          1.0420  -19.4660   11.2480 O.2   322  ALA322     -0.2718
    168  CB        -0.5980  -22.0870   12.5710 C.3   322  ALA322      0.0304
    169  N          1.2020  -21.3120    9.9930 N.am  323  LEU323     -0.1980
    170  CA         2.3740  -20.8230    9.3160 C.3   323  LEU323      0.1596
    171  C          2.1550  -19.4700    8.5550 C.2   323  LEU323      0.2287
    172  O          2.9410  -18.5710    8.7170 O.2   323  LEU323     -0.2864
    173  CB         2.9260  -21.9080    8.3990 C.3   323  LEU323      0.0297
    174  CG         4.0510  -21.4240    7.4570 C.3   323  LEU323      0.0022
    175  CD1        5.2280  -21.0560    8.4000 C.3   323  LEU323      0.0001
    176  CD2        4.4740  -22.4480    6.3420 C.3   323  LEU323      0.0001
    177  N          7.0660  -32.9720    7.3640 N.3   427  VAL427     -0.1245
    178  CA         8.1290  -33.2190    8.2960 C.3   427  VAL427      0.1561
    179  C          9.3530  -33.6880    7.5550 C.2   427  VAL427      0.2260
    180  O         10.4970  -33.3330    7.9170 O.2   427  VAL427     -0.2867
    181  CB         7.7560  -34.3740    9.2150 C.3   427  VAL427      0.0252
    182  CG1        8.9670  -34.8310   10.0440 C.3   427  VAL427      0.0019
    183  CG2        6.6490  -33.9450   10.1050 C.3   427  VAL427      0.0019
@<TRIPOS>BOND
     1   143   142    2
     2   148   147    2
     3   176   174    1
     4   146   147    1
     5   146   149    1
     6   146   145    1
     7   149   150    1
     8   142   145   am
     9   142   141    1
    10   130   129    2
    11   177   178    1
    12   174   173    1
    13   174   175    1
    14   179   180    2
    15   179   178    1
    16   144   141    1
    17   127   128    1
    18   150   151   ar
    19   150   152   ar
    20   141   140    1
    21   178   181    1
    22   129   128    1
    23   129   135   am
    24   173   170    1
    25   140   137   am
    26   171   172    2
    27   171   170    1
    28   128   131    1
    29   151   153   ar
    30   137   138    2
    31   137   136    1
    32   131   132    1
    33   136   135    1
    34   136   139    1
    35   155   156    1
    36   152   154   ar
    37   181   182    1
    38   181   183    1
    39   170   169    1
    40   134   132   ar
    41   162   163    2
    42   162   161    1
    43   132   133   ar
    44   153   154   ar
    45   169   166   am
    46   125   124    1
    47   164   165    1
    48   160   161    1
    49   160   157   am
    50   156   157    1
    51   156   159    1
    52   157   158    2
    53   166   167    2
    54   166   165    1
    55   165   168    1
    56   124   126    1
    57   124   123    1
    58    53    52    1
    59    53    54    1
    60   120   119    1
    61   120   121    1
    62   120   123    1
    63    52    49    1
    64   119   110   am
    65   121   122    2
    66    15    13   am
    67   108   109    1
    68    54    48    1
    69   110   109    1
    70   110   111    2
    71   109   112    1
    72    14    13    2
    73     7     5    1
    74    49    50    1
    75    49    48    1
    76    50    51    2
    77    13    12    1
    78   117   116    1
    79    48    44   am
    80   114   115    1
    81   114   113    1
    82   116   115    2
    83   116   118    1
    84   113   112    1
    85    79    80   ar
    86    79    77   ar
    87     4     3    2
    88     5     6    1
    89     5     2    1
    90    80    78   ar
    91    77    76   ar
    92    12     9    1
    93    44    45    2
    94    44    43    1
    95     3     2    1
    96     3     8   am
    97     2     1    1
    98    78    76   ar
    99     9     8    1
   100     9    10    1
   101    76    75    1
   102    46    43    1
   103    46    47    1
   104    43    42    1
   105    28    27    1
   106    75    72    1
   107    16    10   am
   108    16    17    1
   109    10    11    2
   110    67    66    2
   111    89    87   am
   112    34    33    1
   113    27    26    1
   114    71    72    1
   115    33    35    1
   116    33    30    1
   117    63    61   ar
   118    72    73    1
   119    66    65    1
   120    86    87    1
   121    86    85    1
   122    17    18    1
   123    41    40    1
   124    68    65    1
   125    68    69    1
   126    87    88    2
   127    20    18   am
   128    20    21    1
   129    26    25    1
   130    61    62   ar
   131    61    60    1
   132    81    73   am
   133    81    82    1
   134    73    74    2
   135    25    24    1
   136    29    30    1
   137    29    22   am
   138    65    64    1
   139    18    19    2
   140    30    31    1
   141   107   105   am
   142    85    82    1
   143    36    31   am
   144    36    37    1
   145    24    21    1
   146    69    70    1
   147    40    37    1
   148    21    22    1
   149    82    83    1
   150    31    32    2
   151    60    59    1
   152    64    70    1
   153    22    23    2
   154    37    38    1
   155   105   106    2
   156   105   104    1
   157    97    99   ar
   158    97    95   ar
   159    99    98   ar
   160    59    56    1
   161    58    57    2
   162    83    84    2
   163    57    56    1
   164    38    39    2
   165    95    94    1
   166    95    96   ar
   167   104   101    1
   168    94    91    1
   169    56    55    1
   170    98    96   ar
   171    90    91    1
   172   100   101    1
   173   100    92   am
   174   101   102    1
   175    91    92    1
   176    92    93    2
   177   102   103    2
