@<TRIPOS>MOLECULE
tmp/2vosA00.pdb
 183 177 0 0 0
SMALL
GASTEIGER

@<TRIPOS>ATOM
      1  N         31.8440   10.9490   60.8230 N.3    47  THR47      -0.1203
      2  CA        31.5050   12.3520   60.7310 C.3    47  THR47       0.1994
      3  C         30.3260   12.6130   59.8440 C.2    47  THR47       0.2618
      4  O         29.4940   13.4500   60.1750 O.2    47  THR47      -0.2717
      5  CB        32.6900   13.2020   60.2030 C.3    47  THR47       0.1784
      6  OG1       33.7970   12.9810   61.0970 O.3    47  THR47      -0.2211
      7  CG2       32.3100   14.6700   60.2910 C.3    47  THR47       0.0376
      8  N         30.2860   12.0030   58.6710 N.am   48  ASN48      -0.1960
      9  CA        29.1530   12.2150   57.7900 C.3    48  ASN48       0.1819
     10  C         28.5200   10.8440   57.4130 C.2    48  ASN48       0.2622
     11  O         29.2300    9.8670   57.2590 O.2    48  ASN48      -0.2715
     12  CB        29.5850   12.8920   56.4990 C.3    48  ASN48       0.1195
     13  CG        29.8500   14.3940   56.6630 C.2    48  ASN48       0.2630
     14  OD1       30.9880   14.7660   56.8330 O.2    48  ASN48      -0.2716
     15  ND2       28.7940   15.2490   56.5610 N.am   48  ASN48      -0.0877
     16  N         27.1950   10.8240   57.2490 N.am   49  GLY49      -0.1940
     17  CA        26.4660    9.6340   56.8310 C.3    49  GLY49       0.2014
     18  C         26.0460    8.7350   57.9970 C.2    49  GLY49       0.2639
     19  O         25.4760    7.6600   57.7500 O.2    49  GLY49      -0.2714
     20  N         26.3010    9.1090   59.2520 N.am   50  LYS50      -0.1963
     21  CA        25.9080    8.1740   60.3320 C.3    50  LYS50       0.1728
     22  C         24.4090    7.8790   60.2900 C.2    50  LYS50       0.2617
     23  O         23.9870    6.7170   60.3590 O.2    50  LYS50      -0.2715
     24  CB        26.2320    8.6180   61.7770 C.3    50  LYS50       0.0311
     25  CG        27.7720    8.8290   62.1250 C.3    50  LYS50       0.0038
     26  CD        27.9300    9.2470   63.5790 C.3    50  LYS50       0.0206
     27  CE        27.3910   10.6870   63.8300 C.3    50  LYS50       0.1093
     28  NZ        27.9450   11.7030   62.8380 N.3    50  LYS50      -0.1314
     29  N         23.6120    8.9420   60.3270 N.am   51  THR51      -0.1937
     30  CA        22.1430    8.7690   60.3580 C.3    51  THR51       0.2028
     31  C         21.6590    8.0420   59.1020 C.2    51  THR51       0.2642
     32  O         20.8170    7.1320   59.1820 O.2    51  THR51      -0.2714
     33  CB        21.4010   10.1300   60.5450 C.3    51  THR51       0.1808
     34  OG1       21.6210   10.5160   61.8920 O.3    51  THR51      -0.2208
     35  CG2       19.8630    9.9010   60.3770 C.3    51  THR51       0.0379
     36  N         22.1480    8.4670   57.9460 N.am   52  SER52      -0.1949
     37  CA        21.7020    7.8080   56.7170 C.3    52  SER52       0.1924
     38  C         22.0760    6.3020   56.7250 C.2    52  SER52       0.2314
     39  O         21.2820    5.4320   56.3180 O.2    52  SER52      -0.2863
     40  CB        22.3640    8.4680   55.5120 C.3    52  SER52       0.2116
     41  OG        21.8090    9.7360   55.2250 O.3    52  SER52      -0.2180
     42  N         20.4230   10.5030   65.9400 N.3    72  SER72      -0.1203
     43  CA        20.5220   11.8640   66.4130 C.3    72  SER72       0.2005
     44  C         21.2670   12.7010   65.3640 C.2    72  SER72       0.2460
     45  O         21.9240   12.1670   64.4130 O.2    72  SER72      -0.2732
     46  CB        21.1830   11.9470   67.7880 C.3    72  SER72       0.2103
     47  OG        22.4490   11.3510   67.6780 O.3    72  SER72      -0.2182
     48  N         21.0530   14.0310   65.4400 N.am   73  PRO73      -0.2728
     49  CA        20.0310   14.6430   66.2940 C.3    73  PRO73       0.1401
     50  C         18.6260   14.3820   65.6660 C.2    73  PRO73       0.2269
     51  O         18.5550   13.8110   64.5950 O.2    73  PRO73      -0.2865
     52  CB        20.3570   16.1590   66.2480 C.3    73  PRO73       0.0296
     53  CG        21.4860   16.3290   65.2700 C.3    73  PRO73       0.0237
     54  CD        21.7910   14.9900   64.6030 C.3    73  PRO73       0.0939
     55  N         23.2250    4.8510   66.7040 N.3   141  GLU141     -0.1245
     56  CA        24.1210    5.8760   66.2180 C.3   141  GLU141      0.1567
     57  C         24.7740    6.5990   67.4170 C.2   141  GLU141      0.2260
     58  O         24.0940    6.9760   68.3560 O.2   141  GLU141     -0.2867
     59  CB        23.3430    6.9100   65.3970 C.3   141  GLU141      0.0388
     60  CG        24.1160    8.1210   65.0150 C.3   141  GLU141      0.1160
     61  CD        23.3100    9.1120   64.1540 C.2   141  GLU141      0.3649
     62  OE1       22.1040    8.9290   63.8930 O.co2 141  GLU141     -0.2457
     63  OE2       23.9230   10.0950   63.7170 O.co2 141  GLU141     -0.2457
     64  N         32.7070    7.9550   56.9380 N.3   162  PRO162     -0.2116
     65  CA        33.8260    8.8780   56.6610 C.3   162  PRO162      0.1372
     66  C         34.0200    9.9120   57.7310 C.2   162  PRO162      0.2244
     67  O         33.0760   10.5410   58.1690 O.2   162  PRO162     -0.2868
     68  CB        33.4260    9.5470   55.3410 C.3   162  PRO162      0.0268
     69  CG        32.6130    8.3330   54.6150 C.3   162  PRO162      0.0207
     70  CD        31.7470    7.8950   55.8180 C.3   162  PRO162      0.0892
     71  N         27.5010   10.2780   47.4540 N.3   260  HIS260     -0.1226
     72  CA        27.7850    9.9090   48.8400 C.3   260  HIS260      0.1752
     73  C         26.8010    8.8780   49.3750 C.2   260  HIS260      0.2595
     74  O         27.1760    8.0430   50.2260 O.2   260  HIS260     -0.2718
     75  CB        27.7420   11.1080   49.7730 C.3   260  HIS260      0.0759
     76  CG        26.4650   11.9130   49.7010 C.ar  260  HIS260      0.0818
     77  ND1       26.1430   12.6840   48.6040 N.ar  260  HIS260     -0.2268
     78  CD2       25.5040   12.1610   50.6280 C.ar  260  HIS260      0.1154
     79  CE1       24.9840   13.2870   48.8250 C.ar  260  HIS260      0.1986
     80  NE2       24.6140   13.0420   50.0690 N.ar  260  HIS260     -0.2212
     81  N         25.5440    8.9390   48.9370 N.am  261  GLN261     -0.1979
     82  CA        24.5870    7.9190   49.3980 C.3   261  GLN261      0.1601
     83  C         24.8980    6.5030   48.8220 C.2   261  GLN261      0.2287
     84  O         24.5570    5.5090   49.4130 O.2   261  GLN261     -0.2864
     85  CB        23.1260    8.3350   49.1650 C.3   261  GLN261      0.0394
     86  CG        22.7590    9.6340   49.9650 C.3   261  GLN261      0.0908
     87  CD        22.6490    9.3820   51.4580 C.2   261  GLN261      0.2608
     88  OE1       22.9640    8.3030   51.9480 O.2   261  GLN261     -0.2717
     89  NE2       22.1450   10.3570   52.1900 N.am  261  GLN261     -0.0878
     90  N         27.8670    5.3700   48.6480 N.3   263  HIS263     -0.1226
     91  CA        28.9350    4.8960   49.5460 C.3   263  HIS263      0.1752
     92  C         28.3670    4.4990   50.8980 C.2   263  HIS263      0.2596
     93  O         28.8020    3.5050   51.4970 O.2   263  HIS263     -0.2718
     94  CB        30.0340    5.9920   49.6920 C.3   263  HIS263      0.0759
     95  CG        30.8490    6.1130   48.4490 C.ar  263  HIS263      0.0818
     96  ND1       31.6420    5.0750   47.9860 N.ar  263  HIS263     -0.2268
     97  CD2       30.9230    7.0880   47.5130 C.ar  263  HIS263      0.1154
     98  CE1       32.1660    5.4080   46.8190 C.ar  263  HIS263      0.1986
     99  NE2       31.7410    6.6200   46.5060 N.ar  263  HIS263     -0.2212
    100  N         27.4030    5.2840   51.3830 N.am  264  ASN264     -0.1974
    101  CA        26.6740    4.9420   52.6010 C.3   264  ASN264      0.1688
    102  C         25.9340    3.6050   52.3800 C.2   264  ASN264      0.2292
    103  O         25.9500    2.7600   53.2590 O.2   264  ASN264     -0.2864
    104  CB        25.6060    6.0010   52.9660 C.3   264  ASN264      0.1181
    105  CG        26.2500    7.3290   53.3820 C.2   264  ASN264      0.2629
    106  OD1       27.4480    7.3630   53.6870 O.2   264  ASN264     -0.2716
    107  ND2       25.4620    8.3950   53.4290 N.am  264  ASN264     -0.0877
    108  N         17.8400   14.8030   54.1660 N.3   297  ARG297     -0.1231
    109  CA        19.1090   14.6560   53.3890 C.3   297  ARG297      0.1694
    110  C         18.7920   14.7230   51.8880 C.2   297  ARG297      0.2591
    111  O         18.2480   13.7690   51.2830 O.2   297  ARG297     -0.2718
    112  CB        19.8640   13.3510   53.7190 C.3   297  ARG297      0.0321
    113  CG        20.5960   13.4030   55.1000 C.3   297  ARG297      0.0489
    114  CD        19.6360   13.7750   56.2100 C.3   297  ARG297      0.2205
    115  NE        20.1890   13.6260   57.5620 N.pl3 297  ARG297     -0.0865
    116  CZ        19.5090   13.8570   58.6950 C.cat 297  ARG297      0.5346
    117  NH1       18.2400   14.2660   58.6950 N.pl3 297  ARG297      0.1354
    118  NH2       20.1040   13.6950   59.8630 N.pl3 297  ARG297      0.1354
    119  N         19.0620   15.8950   51.3150 N.am  298  LEU298     -0.1980
    120  CA        18.7140   16.2120   49.9480 C.3   298  LEU298      0.1596
    121  C         17.3010   15.7450   49.6260 C.2   298  LEU298      0.2287
    122  O         17.0690   14.9830   48.6640 O.2   298  LEU298     -0.2864
    123  CB        19.6970   15.5380   49.0090 C.3   298  LEU298      0.0297
    124  CG        20.5760   16.2970   47.9930 C.3   298  LEU298      0.0022
    125  CD1       20.2940   17.7410   47.7710 C.3   298  LEU298      0.0001
    126  CD2       22.0350   15.9350   48.2480 C.3   298  LEU298      0.0001
    127  N         18.3320   20.0700   53.2150 N.3   309  ASP309     -0.1225
    128  CA        19.5070   19.2760   53.4480 C.3   309  ASP309      0.1805
    129  C         20.1870   19.6950   54.7460 C.2   309  ASP309      0.2598
    130  O         20.4400   20.8920   54.9800 O.2   309  ASP309     -0.2718
    131  CB        20.4800   19.3400   52.2700 C.3   309  ASP309      0.1424
    132  CG        21.5730   18.2500   52.3900 C.2   309  ASP309      0.3668
    133  OD1       21.3500   17.0770   52.0820 O.co2 309  ASP309     -0.2456
    134  OD2       22.6320   18.5370   52.8940 O.co2 309  ASP309     -0.2456
    135  N         20.5070   18.7140   55.5900 N.am  310  ALA310     -0.1966
    136  CA        21.0840   18.9450   56.8950 C.3   310  ALA310      0.1728
    137  C         22.5920   19.3330   56.8370 C.2   310  ALA310      0.2616
    138  O         23.1990   19.5130   57.9120 O.2   310  ALA310     -0.2715
    139  CB        20.9360   17.6760   57.7580 C.3   310  ALA310      0.0334
    140  N         23.1950   19.4440   55.6470 N.am  311  ALA311     -0.1963
    141  CA        24.6360   19.7130   55.5680 C.3   311  ALA311      0.1728
    142  C         25.0570   20.8020   56.5530 C.2   311  ALA311      0.2616
    143  O         24.4840   21.8860   56.5820 O.2   311  ALA311     -0.2715
    144  CB        25.0370   20.1130   54.1600 C.3   311  ALA311      0.0334
    145  N         26.0780   20.5090   57.3470 N.am  312  HIS312     -0.1973
    146  CA        26.5260   21.4410   58.3750 C.3   312  HIS312      0.1656
    147  C         28.0560   21.2970   58.5940 C.2   312  HIS312      0.2291
    148  O         28.6000   21.6570   59.6790 O.2   312  HIS312     -0.2864
    149  CB        25.7870   21.2180   59.6900 C.3   312  HIS312      0.0771
    150  CG        25.9680   19.8540   60.2360 C.ar  312  HIS312      0.0820
    151  ND1       25.0360   18.8580   60.0480 N.ar  312  HIS312     -0.2267
    152  CD2       26.9840   19.2970   60.9290 C.ar  312  HIS312      0.1154
    153  CE1       25.4530   17.7580   60.6390 C.ar  312  HIS312      0.1986
    154  NE2       26.6290   17.9960   61.1790 N.ar  312  HIS312     -0.2212
    155  N         32.6360   18.7500   54.2430 N.3   315  ALA315     -0.1231
    156  CA        32.3660   17.5080   53.5090 C.3   315  ALA315      0.1694
    157  C         30.8790   17.3540   53.0840 C.2   315  ALA315      0.2592
    158  O         30.6220   16.9940   51.9310 O.2   315  ALA315     -0.2718
    159  CB        32.8190   16.2850   54.2790 C.3   315  ALA315      0.0304
    160  N         29.9170   17.5990   53.9920 N.am  316  GLY316     -0.1957
    161  CA        28.5190   17.5010   53.6340 C.3   316  GLY316      0.1869
    162  C         28.0910   18.5860   52.6320 C.2   316  GLY316      0.2309
    163  O         27.2900   18.3120   51.7210 O.2   316  GLY316     -0.2863
    164  N         29.2380   17.5420   49.3360 N.3   319  ALA319     -0.1231
    165  CA        28.4350   16.4240   48.7670 C.3   319  ALA319      0.1694
    166  C         27.1280   16.9840   48.1880 C.2   319  ALA319      0.2591
    167  O         26.7140   16.6180   47.0730 O.2   319  ALA319     -0.2718
    168  CB        28.1450   15.3880   49.8150 C.3   319  ALA319      0.0304
    169  N         26.5190   17.9030   48.9440 N.am  320  LEU320     -0.1980
    170  CA        25.3460   18.6000   48.5070 C.3   320  LEU320      0.1596
    171  C         25.5850   19.3620   47.1760 C.2   320  LEU320      0.2287
    172  O         24.7730   19.2440   46.2330 O.2   320  LEU320     -0.2864
    173  CB        24.8780   19.5650   49.6190 C.3   320  LEU320      0.0297
    174  CG        23.7540   20.5410   49.3200 C.3   320  LEU320      0.0022
    175  CD1       22.4540   19.8270   48.7650 C.3   320  LEU320      0.0001
    176  CD2       23.3980   21.4220   50.5920 C.3   320  LEU320      0.0001
    177  N         21.1710   20.8180   60.7690 N.3   426  VAL426     -0.1245
    178  CA        20.0330   19.9330   61.0280 C.3   426  VAL426      0.1561
    179  C         18.7760   20.7100   61.4120 C.2   426  VAL426      0.2260
    180  O         17.6630   20.4190   60.9520 O.2   426  VAL426     -0.2867
    181  CB        20.3720   18.9290   62.1860 C.3   426  VAL426      0.0252
    182  CG1       19.1680   18.0460   62.4670 C.3   426  VAL426      0.0019
    183  CG2       21.5620   18.0750   61.7500 C.3   426  VAL426      0.0019
@<TRIPOS>BOND
     1   172   171    2
     2    99    98   ar
     3    99    97   ar
     4    98    96   ar
     5   167   166    2
     6   171   170    1
     7    71    72    1
     8    97    95   ar
     9   125   124    1
    10    96    95   ar
    11   124   126    1
    12   124   123    1
    13   166   165    1
    14   166   169   am
    15    95    94    1
    16   170   169    1
    17   170   173    1
    18    77    79   ar
    19    77    76   ar
    20    90    91    1
    21   122   121    2
    22   175   174    1
    23   165   164    1
    24   165   168    1
    25    83    82    1
    26    83    84    2
    27    79    80   ar
    28    72    73    1
    29    72    75    1
    30    81    73   am
    31    81    82    1
    32   123   120    1
    33    85    82    1
    34    85    86    1
    35   174   173    1
    36   174   176    1
    37    73    74    2
    38    91    94    1
    39    91    92    1
    40   121   120    1
    41    76    75    1
    42    76    78   ar
    43   120   119    1
    44    86    87    1
    45    80    78   ar
    46    92   100   am
    47    92    93    2
    48   111   110    2
    49   119   110   am
    50   100   101    1
    51    87    88    2
    52    87    89   am
    53   163   162    2
    54   110   109    1
    55   158   157    2
    56   133   132   ar
    57   131   132    1
    58   131   128    1
    59   102   101    1
    60   102   103    2
    61   132   134   ar
    62   101   104    1
    63   162   161    1
    64   104   105    1
    65   157   156    1
    66   157   160   am
    67   127   128    1
    68   105   107   am
    69   105   106    2
    70   109   112    1
    71   109   108    1
    72   128   129    1
    73   156   155    1
    74   156   159    1
    75   161   160    1
    76   112   113    1
    77   144   141    1
    78    69    68    1
    79    69    70    1
    80   129   130    2
    81   129   135   am
    82   113   114    1
    83    41    40    1
    84    68    65    1
    85    40    37    1
    86   141   140    1
    87   141   142    1
    88   135   136    1
    89   140   137   am
    90    70    64    1
    91   114   115    1
    92    39    38    2
    93    12    13    1
    94    12     9    1
    95   142   143    2
    96   142   145   am
    97    15    13   am
    98    65    64    1
    99    65    66    1
   100    13    14    2
   101    37    38    1
   102    37    36    1
   103    17    16    1
   104    17    18    1
   105   137   136    1
   106   137   138    2
   107   136   139    1
   108    16    10   am
   109    11    10    2
   110   145   146    1
   111    10     9    1
   112   115   116    2
   113    66    67    2
   114    19    18    2
   115     9     8    1
   116    36    31   am
   117    18    20   am
   118   146   147    1
   119   146   149    1
   120   147   148    2
   121     8     3   am
   122   117   116    1
   123   116   118    1
   124    31    32    2
   125    31    30    1
   126    20    21    1
   127   149   150    1
   128     3     4    2
   129     3     2    1
   130   151   150   ar
   131   151   153   ar
   132     5     7    1
   133     5     2    1
   134     5     6    1
   135   150   152   ar
   136    22    29   am
   137    22    21    1
   138    22    23    2
   139    29    30    1
   140    21    24    1
   141    30    33    1
   142    35    33    1
   143    33    34    1
   144   153   154   ar
   145     2     1    1
   146   177   178    1
   147   152   154   ar
   148   180   179    2
   149   178   179    1
   150   178   181    1
   151   183   181    1
   152    24    25    1
   153    25    26    1
   154   181   182    1
   155    28    27    1
   156    26    27    1
   157    63    61   ar
   158    62    61   ar
   159    61    60    1
   160    45    44    2
   161    51    50    2
   162    54    53    1
   163    54    48    1
   164    60    59    1
   165    53    52    1
   166    44    48   am
   167    44    43    1
   168    59    56    1
   169    48    49    1
   170    50    49    1
   171    42    43    1
   172    56    55    1
   173    56    57    1
   174    52    49    1
   175    43    46    1
   176    57    58    2
   177    47    46    1
