@<TRIPOS>MOLECULE
tmp/2votA00.pdb
 197 200 0 0 0
SMALL
GASTEIGER

@<TRIPOS>ATOM
      1  N         36.6430   52.2150   -0.1150 N.3   151  ASN151     -0.1240
      2  CA        35.6650   52.8810    0.7280 C.3   151  ASN151      0.1653
      3  C         36.2630   53.6380    1.9130 C.2   151  ASN151      0.2266
      4  O         35.5750   54.3860    2.5440 O.2   151  ASN151     -0.2867
      5  CB        34.5580   51.9030    1.1770 C.3   151  ASN151      0.1155
      6  CG        33.6740   51.4370    0.0000 C.2   151  ASN151      0.2627
      7  OD1       32.8340   52.1880   -0.4580 O.2   151  ASN151     -0.2716
      8  ND2       33.8710   50.2200   -0.4690 N.am  151  ASN151     -0.0877
      9  N         31.9920   55.1560    3.6300 N.3   171  TRP171     -0.1227
     10  CA        31.5590   54.1260    2.7540 C.3   171  TRP171      0.1737
     11  C         30.7830   54.7840    1.6030 C.2   171  TRP171      0.2595
     12  O         30.6250   55.9850    1.6040 O.2   171  TRP171     -0.2718
     13  CB        30.6790   53.0960    3.5020 C.3   171  TRP171      0.0564
     14  CG        30.8120   51.7400    2.8820 C.ar  171  TRP171      0.0003
     15  CD1       29.9640   51.1420    1.9830 C.ar  171  TRP171      0.0946
     16  CD2       31.8540   50.8020    3.1320 C.ar  171  TRP171      0.0152
     17  NE1       30.4360   49.9030    1.6400 N.ar  171  TRP171     -0.2442
     18  CE2       31.6050   49.6760    2.3290 C.ar  171  TRP171      0.0810
     19  CE3       32.9780   50.7950    4.0060 C.ar  171  TRP171      0.0012
     20  CZ2       32.4470   48.5540    2.3250 C.ar  171  TRP171      0.0191
     21  CZ3       33.8100   49.6970    4.0030 C.ar  171  TRP171      0.0001
     22  CH2       33.5540   48.5870    3.1520 C.ar  171  TRP171      0.0015
     23  N         30.2560   53.9990    0.6680 N.am  172  ASP172     -0.1960
     24  CA        29.5870   54.6140   -0.5260 C.3   172  ASP172      0.1840
     25  C         28.1440   55.1360   -0.2340 C.2   172  ASP172      0.2622
     26  O         27.4530   55.6710   -1.1390 O.2   172  ASP172     -0.2715
     27  CB        29.7200   53.7290   -1.7820 C.3   172  ASP172      0.1450
     28  CG        29.1000   52.3280   -1.6210 C.2   172  ASP172      0.3671
     29  OD1       28.2900   52.1300   -0.6830 O.co2 172  ASP172     -0.2456
     30  OD2       29.4390   51.4340   -2.4170 O.co2 172  ASP172     -0.2456
     31  N         27.7210   55.0360    1.0250 N.am  173  TRP173     -0.1974
     32  CA        26.5000   55.6930    1.4970 C.3   173  TRP173      0.1640
     33  C         26.7980   56.3930    2.8020 C.2   173  TRP173      0.2290
     34  O         25.8900   56.8180    3.5120 O.2   173  TRP173     -0.2864
     35  CB        25.3700   54.6400    1.6900 C.3   173  TRP173      0.0576
     36  CG        25.9100   53.3140    2.2190 C.ar  173  TRP173      0.0006
     37  CD1       26.0460   52.1580    1.5350 C.ar  173  TRP173      0.0946
     38  CD2       26.4390   53.0610    3.5410 C.ar  173  TRP173      0.0152
     39  NE1       26.6180   51.1920    2.3310 N.ar  173  TRP173     -0.2442
     40  CE2       26.8530   51.7210    3.5680 C.ar  173  TRP173      0.0810
     41  CE3       26.5670   53.8320    4.7100 C.ar  173  TRP173      0.0012
     42  CZ2       27.4070   51.1310    4.6950 C.ar  173  TRP173      0.0191
     43  CZ3       27.1470   53.2220    5.8600 C.ar  173  TRP173      0.0001
     44  CH2       27.5530   51.9000    5.8190 C.ar  173  TRP173      0.0015
     45  N         25.6360   43.1320    7.6250 N.3   368  TRP368     -0.1241
     46  CA        26.6900   43.1350    6.6160 C.3   368  TRP368      0.1605
     47  C         28.0320   43.5370    7.2530 C.2   368  TRP368      0.2264
     48  O         28.0870   44.3380    8.1840 O.2   368  TRP368     -0.2867
     49  CB        26.2820   44.0880    5.4710 C.3   368  TRP368      0.0550
     50  CG        27.3140   44.8010    4.6370 C.ar  368  TRP368      0.0003
     51  CD1       27.7510   44.4220    3.4140 C.ar  368  TRP368      0.0946
     52  CD2       27.9640   46.0590    4.9160 C.ar  368  TRP368      0.0152
     53  NE1       28.6540   45.3370    2.9220 N.ar  368  TRP368     -0.2442
     54  CE2       28.7860   46.3530    3.8240 C.ar  368  TRP368      0.0810
     55  CE3       27.9040   46.9760    5.9750 C.ar  368  TRP368      0.0012
     56  CZ2       29.5400   47.5070    3.7530 C.ar  368  TRP368      0.0191
     57  CZ3       28.6830   48.1080    5.9050 C.ar  368  TRP368      0.0001
     58  CH2       29.4830   48.3570    4.8060 C.ar  368  TRP368      0.0015
     59  N         35.1910   44.0390    1.4200 N.3   397  CYS397     -0.1235
     60  CA        35.6060   44.6470    0.1600 C.3   397  CYS397      0.1677
     61  C         37.0840   44.8320   -0.0690 C.2   397  CYS397      0.2270
     62  O         37.4570   45.2890   -1.1430 O.2   397  CYS397     -0.2867
     63  CB        34.9510   46.0040   -0.0340 C.3   397  CYS397      0.0956
     64  SG        33.1410   45.9370   -0.1280 S.3   397  CYS397     -0.0801
     65  N         32.4070   40.2580    3.2660 N.3   434  ASN434     -0.1225
     66  CA        31.6810   40.7970    2.1400 C.3   434  ASN434      0.1785
     67  C         32.6410   41.0330    1.0010 C.2   434  ASN434      0.2597
     68  O         33.4960   41.9300    1.1050 O.2   434  ASN434     -0.2718
     69  CB        31.0140   42.1420    2.5090 C.3   434  ASN434      0.1169
     70  CG        30.2160   42.7170    1.3560 C.2   434  ASN434      0.2627
     71  OD1       29.2130   42.1490    0.9950 O.2   434  ASN434     -0.2716
     72  ND2       30.6790   43.8290    0.7580 N.am  434  ASN434     -0.0877
     73  N         32.5030   40.2240   -0.0500 N.am  435  GLU435     -0.1979
     74  CA        33.0720   40.4870   -1.4100 C.3   435  GLU435      0.1602
     75  C         34.5930   40.4430   -1.5260 C.2   435  GLU435      0.2287
     76  O         35.1340   40.7050   -2.5930 O.2   435  GLU435     -0.2864
     77  CB        32.5270   41.8030   -1.9690 C.3   435  GLU435      0.0415
     78  CG        31.0470   41.6840   -2.3420 C.3   435  GLU435      0.1163
     79  CD        30.4530   43.0240   -2.8450 C.2   435  GLU435      0.3649
     80  OE1       31.1720   44.0380   -2.8890 O.co2 435  GLU435     -0.2457
     81  OE2       29.2500   43.0690   -3.1630 O.co2 435  GLU435     -0.2457
     82  N         35.6100   37.9000   -4.3540 N.3   438  GLU438     -0.1245
     83  CA        35.2830   38.5890   -5.6190 C.3   438  GLU438      0.1567
     84  C         36.3120   39.6710   -5.9660 C.2   438  GLU438      0.2260
     85  O         36.8130   39.7190   -7.1320 O.2   438  GLU438     -0.2867
     86  CB        33.9540   39.2860   -5.5020 C.3   438  GLU438      0.0388
     87  CG        33.5480   39.9230   -6.8490 C.3   438  GLU438      0.1160
     88  CD        32.1400   40.4530   -6.8600 C.2   438  GLU438      0.3649
     89  OE1       31.9560   41.6410   -6.5280 O.co2 438  GLU438     -0.2457
     90  OE2       31.2290   39.6970   -7.2510 O.co2 438  GLU438     -0.2457
     91  N         38.6990   42.2880   -9.3300 N.3   443  TRP443     -0.1241
     92  CA        38.6240   43.7640   -9.2570 C.3   443  TRP443      0.1605
     93  C         39.8970   44.4800   -9.6960 C.2   443  TRP443      0.2264
     94  O         39.9970   45.7130   -9.5030 O.2   443  TRP443     -0.2867
     95  CB        38.1510   44.3170   -7.9040 C.3   443  TRP443      0.0550
     96  CG        36.7250   44.0670   -7.5170 C.ar  443  TRP443      0.0003
     97  CD1       35.7400   43.4600   -8.2700 C.ar  443  TRP443      0.0946
     98  CD2       36.1090   44.4210   -6.2720 C.ar  443  TRP443      0.0152
     99  NE1       34.5660   43.4040   -7.5590 N.ar  443  TRP443     -0.2442
    100  CE2       34.7600   43.9810   -6.3300 C.ar  443  TRP443      0.0810
    101  CE3       36.5670   45.0450   -5.0990 C.ar  443  TRP443      0.0012
    102  CZ2       33.8740   44.1590   -5.2680 C.ar  443  TRP443      0.0191
    103  CZ3       35.6770   45.2240   -4.0380 C.ar  443  TRP443      0.0001
    104  CH2       34.3510   44.7750   -4.1280 C.ar  443  TRP443      0.0015
    105  N         28.3680   38.9150  -10.8430 N.3   492  TRP492     -0.1241
    106  CA        27.2560   39.4450  -11.6140 C.3   492  TRP492      0.1605
    107  C         27.5650   39.5820  -13.0890 C.2   492  TRP492      0.2264
    108  O         26.6220   39.6430  -13.8920 O.2   492  TRP492     -0.2867
    109  CB        26.6770   40.7430  -11.0500 C.3   492  TRP492      0.0550
    110  CG        27.5440   42.0200  -11.0500 C.ar  492  TRP492      0.0003
    111  CD1       28.3050   42.5000  -10.0100 C.ar  492  TRP492      0.0946
    112  CD2       27.6430   42.9940  -12.0990 C.ar  492  TRP492      0.0152
    113  NE1       28.8900   43.6960  -10.3550 N.ar  492  TRP492     -0.2442
    114  CE2       28.5060   44.0200  -11.6390 C.ar  492  TRP492      0.0810
    115  CE3       27.1130   43.0790  -13.3970 C.ar  492  TRP492      0.0012
    116  CZ2       28.8260   45.1460  -12.4250 C.ar  492  TRP492      0.0191
    117  CZ3       27.4270   44.1890  -14.1870 C.ar  492  TRP492      0.0001
    118  CH2       28.2990   45.2030  -13.7040 C.ar  492  TRP492      0.0015
    119  N         25.4370   38.5310   -5.4720 N.3   504  HIS504     -0.1241
    120  CA        25.2320   39.9820   -5.3440 C.3   504  HIS504      0.1621
    121  C         25.0310   40.5620   -6.7640 C.2   504  HIS504      0.2264
    122  O         26.0180   40.9720   -7.4030 O.2   504  HIS504     -0.2867
    123  CB        26.5320   40.6090   -4.7570 C.3   504  HIS504      0.0745
    124  CG        26.7820   40.2260   -3.3240 C.ar  504  HIS504      0.0817
    125  ND1       27.6100   40.9500   -2.4820 N.ar  504  HIS504     -0.2268
    126  CD2       26.3150   39.1890   -2.5940 C.ar  504  HIS504      0.1154
    127  CE1       27.6350   40.3720   -1.2940 C.ar  504  HIS504      0.1986
    128  NE2       26.8310   39.3180   -1.3220 N.ar  504  HIS504     -0.2212
    129  N         24.6730   43.0990   -9.1050 N.3   506  TRP506     -0.1241
    130  CA        24.7130   44.5270   -9.2230 C.3   506  TRP506      0.1605
    131  C         24.7090   44.9070  -10.7070 C.2   506  TRP506      0.2264
    132  O         25.1630   45.9740  -11.0850 O.2   506  TRP506     -0.2867
    133  CB        25.9100   45.1160   -8.4630 C.3   506  TRP506      0.0550
    134  CG        25.6380   45.1730   -6.9870 C.ar  506  TRP506      0.0003
    135  CD1       26.0510   44.2680   -6.0580 C.ar  506  TRP506      0.0946
    136  CD2       24.7920   46.1040   -6.3070 C.ar  506  TRP506      0.0152
    137  NE1       25.5580   44.6130   -4.8040 N.ar  506  TRP506     -0.2442
    138  CE2       24.7970   45.7490   -4.9330 C.ar  506  TRP506      0.0810
    139  CE3       24.0460   47.2390   -6.7210 C.ar  506  TRP506      0.0012
    140  CZ2       24.1090   46.5000   -3.9590 C.ar  506  TRP506      0.0191
    141  CZ3       23.3810   47.9840   -5.7960 C.ar  506  TRP506      0.0001
    142  CH2       23.4000   47.6160   -4.3960 C.ar  506  TRP506      0.0015
    143  N         24.9530   49.2390  -10.9710 N.3   510  TYR510     -0.1241
    144  CA        26.3150   49.3140  -11.5160 C.3   510  TYR510      0.1605
    145  C         26.4280   48.8460  -12.9500 C.2   510  TYR510      0.2264
    146  O         27.1920   49.4260  -13.6810 O.2   510  TYR510     -0.2867
    147  CB        27.3490   48.5520  -10.6810 C.3   510  TYR510      0.0534
    148  CG        27.5240   49.2240   -9.3450 C.ar  510  TYR510     -0.0201
    149  CD1       28.2710   50.3940   -9.2540 C.ar  510  TYR510     -0.0009
    150  CD2       26.8750   48.7260   -8.1730 C.ar  510  TYR510     -0.0009
    151  CE1       28.3890   51.0590   -8.0550 C.ar  510  TYR510      0.0417
    152  CE2       27.0100   49.3780   -6.9430 C.ar  510  TYR510      0.0417
    153  CZ        27.7690   50.5580   -6.9020 C.ar  510  TYR510      0.1957
    154  OH        27.9290   51.3010   -5.7750 O.3   510  TYR510     -0.2866
    155  N         22.3230   40.2910   -2.2920 N.3   528  GLU528     -0.1245
    156  CA        22.3060   41.7400   -2.4770 C.3   528  GLU528      0.1567
    157  C         21.8070   42.0860   -3.8770 C.2   528  GLU528      0.2260
    158  O         22.2210   41.4250   -4.8030 O.2   528  GLU528     -0.2867
    159  CB        23.7450   42.3320   -2.4590 C.3   528  GLU528      0.0388
    160  CG        24.4370   42.2080   -1.1060 C.3   528  GLU528      0.1160
    161  CD        25.7120   43.0820   -1.0500 C.2   528  GLU528      0.3649
    162  OE1       26.0350   43.7220   -2.1040 O.co2 528  GLU528     -0.2457
    163  OE2       26.3860   43.1180    0.0190 O.co2 528  GLU528     -0.2457
    164  N         30.4230   54.9650   -6.8300 N.3   563  SER563     -0.1217
    165  CA        31.2920   55.2650   -7.9430 C.3   563  SER563      0.1889
    166  C         30.4660   55.6190   -9.1800 C.2   563  SER563      0.2288
    167  O         30.9770   56.1530  -10.1660 O.2   563  SER563     -0.2866
    168  CB        32.1620   54.0420   -8.2280 C.3   563  SER563      0.2089
    169  OG        31.3660   52.9890   -8.6940 O.3   563  SER563     -0.2183
    170  N         19.5840   45.2550   -1.0530 N.3   618  TRP618     -0.1241
    171  CA        20.5580   46.2330   -0.5720 C.3   618  TRP618      0.1605
    172  C         19.8490   47.6190   -0.7210 C.2   618  TRP618      0.2264
    173  O         19.6400   48.0280   -1.8540 O.2   618  TRP618     -0.2867
    174  CB        21.8780   46.1480   -1.3800 C.3   618  TRP618      0.0550
    175  CG        22.8400   47.1280   -0.7390 C.ar  618  TRP618      0.0003
    176  CD1       22.9380   48.4970   -0.9440 C.ar  618  TRP618      0.0946
    177  CD2       23.6720   46.8340    0.3950 C.ar  618  TRP618      0.0152
    178  NE1       23.8510   49.0440   -0.0260 N.ar  618  TRP618     -0.2442
    179  CE2       24.3020   48.0310    0.7950 C.ar  618  TRP618      0.0810
    180  CE3       23.9790   45.6420    1.0750 C.ar  618  TRP618      0.0012
    181  CZ2       25.2020   48.0760    1.8800 C.ar  618  TRP618      0.0191
    182  CZ3       24.8930   45.6940    2.1660 C.ar  618  TRP618      0.0001
    183  CH2       25.4960   46.8830    2.5190 C.ar  618  TRP618      0.0015
    184  N         20.7160   53.4090   -1.3830 N.3   629  TRP629     -0.1241
    185  CA        19.8730   52.3060   -1.7550 C.3   629  TRP629      0.1605
    186  C         18.8320   51.9510   -0.6870 C.2   629  TRP629      0.2264
    187  O         18.1380   50.9400   -0.8340 O.2   629  TRP629     -0.2867
    188  CB        20.7760   51.0910   -1.9890 C.3   629  TRP629      0.0550
    189  CG        21.8350   51.3360   -3.0570 C.ar  629  TRP629      0.0003
    190  CD1       21.7560   50.9850   -4.3740 C.ar  629  TRP629      0.0946
    191  CD2       23.0960   52.0000   -2.8800 C.ar  629  TRP629      0.0152
    192  NE1       22.9130   51.3850   -5.0390 N.ar  629  TRP629     -0.2442
    193  CE2       23.7300   52.0390   -4.1420 C.ar  629  TRP629      0.0810
    194  CE3       23.7490   52.5890   -1.7690 C.ar  629  TRP629      0.0012
    195  CZ2       25.0210   52.6240   -4.3300 C.ar  629  TRP629      0.0191
    196  CZ3       25.0080   53.1820   -1.9630 C.ar  629  TRP629      0.0001
    197  CH2       25.6220   53.1840   -3.2470 C.ar  629  TRP629      0.0015
@<TRIPOS>BOND
     1   117   118   ar
     2   117   115   ar
     3   108   107    2
     4   118   116   ar
     5   146   145    2
     6   115   112   ar
     7   107   106    1
     8   145   144    1
     9   116   114   ar
    10   112   114   ar
    11   112   110   ar
    12   114   113   ar
    13   106   109    1
    14   106   105    1
    15   144   143    1
    16   144   147    1
    17   132   131    2
    18   110   109    1
    19   110   111   ar
    20   131   130    1
    21   147   148    1
    22   113   111   ar
    23   167   166    2
    24    93    94    2
    25    93    92    1
    26   148   149   ar
    27   148   150   ar
    28    91    92    1
    29    92    95    1
    30   149   151   ar
    31   130   129    1
    32   130   133    1
    33   166   165    1
    34   169   168    1
    35   133   134    1
    36    97    99   ar
    37    97    96   ar
    38   168   165    1
    39   150   152   ar
    40   151   153   ar
    41   165   164    1
    42    95    96    1
    43    99   100   ar
    44    96    98   ar
    45   122   121    2
    46    90    88   ar
    47    85    84    2
    48   134   136   ar
    49   134   135   ar
    50   152   153   ar
    51   153   154    1
    52    88    87    1
    53    88    89   ar
    54    87    86    1
    55   121   120    1
    56   139   136   ar
    57   139   141   ar
    58   100    98   ar
    59   100   102   ar
    60   136   138   ar
    61    98   101   ar
    62   135   137   ar
    63    84    83    1
    64   141   142   ar
    65    83    86    1
    66    83    82    1
    67   119   120    1
    68   120   123    1
    69   102   104   ar
    70   101   103   ar
    71   192   190   ar
    72   192   193   ar
    73   138   137   ar
    74   138   140   ar
    75   158   157    2
    76   123   124    1
    77   142   140   ar
    78   190   189   ar
    79   195   193   ar
    80   195   197   ar
    81   193   191   ar
    82   104   103   ar
    83   157   156    1
    84   124   126   ar
    85   124   125   ar
    86   197   196   ar
    87    81    79   ar
    88   189   191   ar
    89   189   188    1
    90    80    79   ar
    91   191   194   ar
    92    79    78    1
    93   126   128   ar
    94    76    75    2
    95   125   127   ar
    96   156   159    1
    97   156   155    1
    98   159   160    1
    99    30    28   ar
   100    78    77    1
   101   162   161   ar
   102   188   185    1
   103    77    74    1
   104   196   194   ar
   105   173   172    2
   106    27    28    1
   107    27    24    1
   108   185   184    1
   109   185   186    1
   110    28    29   ar
   111    75    74    1
   112    74    73    1
   113   174   175    1
   114   174   171    1
   115   128   127   ar
   116    62    61    2
   117    26    25    2
   118   160   161    1
   119   170   171    1
   120   161   163   ar
   121   176   175   ar
   122   176   178   ar
   123   187   186    2
   124   175   177   ar
   125   172   171    1
   126    24    25    1
   127    24    23    1
   128     8     6   am
   129     7     6    2
   130    25    31   am
   131    64    63    1
   132     1     2    1
   133    61    60    1
   134    73    67   am
   135    63    60    1
   136   178   179   ar
   137     6     5    1
   138    60    59    1
   139   177   179   ar
   140   177   180   ar
   141    23    11   am
   142     2     5    1
   143     2     3    1
   144    72    70   am
   145   179   181   ar
   146    71    70    2
   147    67    68    2
   148    67    66    1
   149    31    32    1
   150   180   182   ar
   151    70    69    1
   152    32    35    1
   153    32    33    1
   154    37    36   ar
   155    37    39   ar
   156    11    12    2
   157    11    10    1
   158    17    15   ar
   159    17    18   ar
   160    35    36    1
   161   181   183   ar
   162     3     4    2
   163    15    14   ar
   164    66    69    1
   165    66    65    1
   166   182   183   ar
   167    36    38   ar
   168    20    18   ar
   169    20    22   ar
   170    18    16   ar
   171    39    40   ar
   172    10    13    1
   173    10     9    1
   174    33    34    2
   175    14    16   ar
   176    14    13    1
   177    53    51   ar
   178    53    54   ar
   179    16    19   ar
   180    22    21   ar
   181    51    50   ar
   182    38    40   ar
   183    38    41   ar
   184    40    42   ar
   185    56    54   ar
   186    56    58   ar
   187    54    52   ar
   188    21    19   ar
   189    50    52   ar
   190    50    49    1
   191    42    44   ar
   192    41    43   ar
   193    58    57   ar
   194    52    55   ar
   195    49    46    1
   196    44    43   ar
   197    57    55   ar
   198    46    47    1
   199    46    45    1
   200    47    48    2
