@<TRIPOS>MOLECULE
tmp/2vp2B00.pdb
 235 226 0 0 0
SMALL
GASTEIGER

@<TRIPOS>ATOM
      1  N         37.8140   14.5960   12.6080 N.3    18  ILE18      -0.1231
      2  CA        37.7560   13.2220   12.1400 C.3    18  ILE18       0.1692
      3  C         39.1950   12.7800   12.0230 C.2    18  ILE18       0.2593
      4  O         40.0040   13.4550   11.3870 O.2    18  ILE18      -0.2718
      5  CB        37.0980   13.0800   10.7330 C.3    18  ILE18       0.0266
      6  CG1       35.7840   13.8670   10.6400 C.3    18  ILE18       0.0019
      7  CG2       36.8810   11.6170   10.4000 C.3    18  ILE18       0.0020
      8  CD1       35.2000   13.9180    9.2510 C.3    18  ILE18       0.0001
      9  N         39.5210   11.6600   12.6500 N.am   19  GLY19      -0.1942
     10  CA        40.8480   11.0950   12.5050 C.3    19  GLY19       0.2014
     11  C         41.9170   11.7780   13.3340 C.2    19  GLY19       0.2640
     12  O         43.0980   11.6610   13.0220 O.2    19  GLY19      -0.2714
     13  N         41.5230   12.4810   14.3920 N.am   20  SER20      -0.1935
     14  CA        42.5020   13.1320   15.2640 C.3    20  SER20       0.2055
     15  C         43.0370   12.1980   16.3510 C.2    20  SER20       0.2644
     16  O         43.9370   12.5790   17.1170 O.2    20  SER20      -0.2714
     17  CB        41.9420   14.4210   15.8820 C.3    20  SER20       0.2130
     18  OG        40.7800   14.1760   16.6640 O.3    20  SER20      -0.2179
     19  N         42.5000   10.9780   16.4090 N.am   21  GLY21      -0.1939
     20  CA        42.9270    9.9920   17.3930 C.3    21  GLY21       0.2014
     21  C         42.0720    9.9360   18.6440 C.2    21  GLY21       0.2639
     22  O         42.5390    9.4830   19.6970 O.2    21  GLY21      -0.2714
     23  N         40.8130   10.3600   18.5370 N.am   22  LYS22      -0.1963
     24  CA        39.9360   10.4440   19.7060 C.3    22  LYS22       0.1728
     25  C         39.6560    9.1030   20.3390 C.2    22  LYS22       0.2617
     26  O         39.7770    8.9600   21.5440 O.2    22  LYS22      -0.2715
     27  CB        38.6260   11.1270   19.3650 C.3    22  LYS22       0.0311
     28  CG        38.7480   12.5890   19.0340 C.3    22  LYS22       0.0038
     29  CD        37.3650   13.1940   18.8570 C.3    22  LYS22       0.0206
     30  CE        36.5890   12.5450   17.7280 C.3    22  LYS22       0.1093
     31  NZ        37.2580   12.7820   16.4310 N.3    22  LYS22      -0.1314
     32  N         39.2810    8.1250   19.5230 N.am   23  THR23      -0.1937
     33  CA        38.9840    6.7850   20.0060 C.3    23  THR23       0.2028
     34  C         40.2400    6.1390   20.6000 C.2    23  THR23       0.2642
     35  O         40.2140    5.6910   21.7430 O.2    23  THR23      -0.2714
     36  CB        38.3750    5.9120   18.8840 C.3    23  THR23       0.1808
     37  OG1       37.2710    6.6050   18.2970 O.3    23  THR23      -0.2208
     38  CG2       37.8910    4.5550   19.4130 C.3    23  THR23       0.0379
     39  N         41.3230    6.1020   19.8120 N.am   24  THR24      -0.1950
     40  CA        42.6540    5.6360   20.2480 C.3    24  THR24       0.1897
     41  C         43.0620    6.2010   21.6210 C.2    24  THR24       0.2313
     42  O         43.4850    5.4580   22.5100 O.2    24  THR24      -0.2863
     43  CB        43.7460    5.9700   19.1690 C.3    24  THR24       0.1794
     44  OG1       43.5010    5.2050   17.9780 O.3    24  THR24      -0.2208
     45  CG2       45.1470    5.6450   19.6670 C.3    24  THR24       0.0378
     46  N         30.9850    6.5700   19.0340 N.3    42  PRO42      -0.2102
     47  CA        29.5820    6.6290   18.5880 C.3    42  PRO42       0.1504
     48  C         29.3240    6.3090   17.0950 C.2    42  PRO42       0.2575
     49  O         28.1690    6.0270   16.7370 O.2    42  PRO42      -0.2718
     50  CB        29.1740    8.0730   18.9030 C.3    42  PRO42       0.0282
     51  CG        30.4860    8.8380   18.9160 C.3    42  PRO42       0.0208
     52  CD        31.4700    7.8840   19.5100 C.3    42  PRO42       0.0893
     53  N         30.3520    6.3580   16.2360 N.am   43  VAL43      -0.1980
     54  CA        30.1530    6.0440   14.8070 C.3    43  VAL43       0.1595
     55  C         29.4560    4.6970   14.6300 C.2    43  VAL43       0.2287
     56  O         28.6860    4.5180   13.7000 O.2    43  VAL43      -0.2864
     57  CB        31.4560    5.9030   13.9560 C.3    43  VAL43       0.0276
     58  CG1       31.3100    6.6890   12.6730 C.3    43  VAL43       0.0022
     59  CG2       32.6950    6.3070   14.6980 C.3    43  VAL43       0.0022
     60  N         25.8640    4.9120   14.3670 N.3    46  TRP46      -0.1241
     61  CA        25.4460    5.5970   13.1390 C.3    46  TRP46       0.1605
     62  C         25.5640    4.7090   11.9170 C.2    46  TRP46       0.2264
     63  O         24.8850    4.9370   10.9140 O.2    46  TRP46      -0.2867
     64  CB        26.1830    6.9360   12.9320 C.3    46  TRP46       0.0550
     65  CG        26.1930    7.7780   14.1550 C.ar   46  TRP46       0.0003
     66  CD1       25.2470    7.7980   15.1330 C.ar   46  TRP46       0.0946
     67  CD2       27.2020    8.7110   14.5590 C.ar   46  TRP46       0.0152
     68  NE1       25.6060    8.6640   16.1240 N.ar   46  TRP46      -0.2442
     69  CE2       26.8010    9.2460   15.7970 C.ar   46  TRP46       0.0810
     70  CE3       28.4130    9.1340   14.0030 C.ar   46  TRP46       0.0012
     71  CZ2       27.5610   10.1920   16.4890 C.ar   46  TRP46       0.0191
     72  CZ3       29.1670   10.0690   14.6850 C.ar   46  TRP46       0.0001
     73  CH2       28.7370   10.5910   15.9190 C.ar   46  TRP46       0.0015
     74  N         25.5100    6.6060    8.3070 N.3    55  LEU55      -0.1245
     75  CA        26.7910    7.1790    7.9400 C.3    55  LEU55       0.1561
     76  C         26.9720    7.0370    6.4360 C.2    55  LEU55       0.2260
     77  O         27.2130    8.0280    5.7360 O.2    55  LEU55      -0.2867
     78  CB        27.9300    6.4860    8.6940 C.3    55  LEU55       0.0270
     79  CG        29.2910    7.1700    8.5840 C.3    55  LEU55       0.0019
     80  CD1       29.2900    8.5500    9.2420 C.3    55  LEU55       0.0001
     81  CD2       30.3530    6.2810    9.1840 C.3    55  LEU55       0.0001
     82  N         24.5080    9.2260    4.2990 N.3    58  MET58      -0.1230
     83  CA        24.8470   10.6390    4.4260 C.3    58  MET58       0.1702
     84  C         25.9910   11.0230    3.4800 C.2    58  MET58       0.2592
     85  O         25.9190   12.0540    2.8280 O.2    58  MET58      -0.2718
     86  CB        25.1720   11.0020    5.8790 C.3    58  MET58       0.0401
     87  CG        25.5860   12.4560    6.0990 C.3    58  MET58       0.0596
     88  SD        27.3690   12.7740    5.8890 S.3    58  MET58      -0.1393
     89  CE        28.1650   11.7030    7.0820 C.3    58  MET58       0.0692
     90  N         27.0350   10.2010    3.4060 N.am   59  TYR59      -0.1976
     91  CA        28.1450   10.4860    2.4980 C.3    59  TYR59       0.1639
     92  C         27.7530   10.4280    1.0210 C.2    59  TYR59       0.2290
     93  O         28.2210   11.2510    0.2310 O.2    59  TYR59      -0.2864
     94  CB        29.3690    9.6020    2.7940 C.3    59  TYR59       0.0560
     95  CG        30.1970   10.1600    3.9200 C.ar   59  TYR59      -0.0198
     96  CD1       30.5130    9.3880    5.0470 C.ar   59  TYR59      -0.0009
     97  CD2       30.6200   11.4840    3.8850 C.ar   59  TYR59      -0.0009
     98  CE1       31.2560    9.9230    6.1010 C.ar   59  TYR59       0.0417
     99  CE2       31.3530   12.0310    4.9300 C.ar   59  TYR59       0.0417
    100  CZ        31.6750   11.2490    6.0290 C.ar   59  TYR59       0.1957
    101  OH        32.4060   11.8300    7.0340 O.3    59  TYR59      -0.2866
    102  N         20.5410   12.3750    9.3510 N.3    69  PHE69      -0.1227
    103  CA        21.7740   11.9000    9.9920 C.3    69  PHE69       0.1736
    104  C         22.1160   12.7430   11.2170 C.2    69  PHE69       0.2595
    105  O         22.4220   12.1840   12.2760 O.2    69  PHE69      -0.2718
    106  CB        22.9460   11.8760    9.0050 C.3    69  PHE69       0.0547
    107  CG        24.2300   11.4750    9.6270 C.ar   69  PHE69      -0.0202
    108  CD1       24.5720   10.1310    9.7300 C.ar   69  PHE69      -0.0042
    109  CD2       25.0950   12.4370   10.1500 C.ar   69  PHE69      -0.0042
    110  CE1       25.7690    9.7430   10.3410 C.ar   69  PHE69      -0.0003
    111  CE2       26.2870   12.0550   10.7520 C.ar   69  PHE69      -0.0003
    112  CZ        26.6250   10.7010   10.8460 C.ar   69  PHE69      -0.0000
    113  N         22.0420   14.0750   11.0650 N.am   70  GLN70      -0.1979
    114  CA        22.2820   15.0290   12.1640 C.3    70  GLN70       0.1601
    115  C         21.2570   14.9390   13.2910 C.2    70  GLN70       0.2287
    116  O         21.5890   15.0610   14.4900 O.2    70  GLN70      -0.2864
    117  CB        22.3250   16.4710   11.6460 C.3    70  GLN70       0.0394
    118  CG        23.6310   16.8190   10.9680 C.3    70  GLN70       0.0908
    119  CD        24.8200   16.5930   11.8670 C.2    70  GLN70       0.2608
    120  OE1       25.7320   15.8530   11.5160 O.2    70  GLN70      -0.2717
    121  NE2       24.8020   17.1970   13.0500 N.am   70  GLN70      -0.0878
    122  N         22.5530   11.9980   15.1330 N.3    73  VAL73      -0.1245
    123  CA        23.7670   12.3050   15.8840 C.3    73  VAL73       0.1561
    124  C         23.3690   12.9950   17.1540 C.2    73  VAL73       0.2260
    125  O         23.8840   12.6680   18.2250 O.2    73  VAL73      -0.2867
    126  CB        24.8000   13.1730   15.0680 C.3    73  VAL73       0.0252
    127  CG1       25.9260   13.7070   15.9770 C.3    73  VAL73       0.0019
    128  CG2       25.3820   12.3380   13.9250 C.3    73  VAL73       0.0019
    129  N         24.2920   11.5280   21.0440 N.3    77  MET77      -0.1245
    130  CA        25.0110   12.4040   22.0000 C.3    77  MET77       0.1570
    131  C         24.2120   12.6440   23.2820 C.2    77  MET77       0.2261
    132  O         24.7340   12.4840   24.3900 O.2    77  MET77      -0.2867
    133  CB        25.4030   13.7540   21.3620 C.3    77  MET77       0.0387
    134  CG        26.4230   13.6690   20.2010 C.3    77  MET77       0.0595
    135  SD        27.9420   12.8040   20.6340 S.3    77  MET77      -0.1393
    136  CE        27.4480   11.0710   20.6260 C.3    77  MET77       0.0692
    137  N         33.6740   10.3740   23.9800 N.3    93  GLU93      -0.1231
    138  CA        34.1260   10.7790   22.6740 C.3    93  GLU93       0.1699
    139  C         33.0460   11.6740   22.0410 C.2    93  GLU93       0.2592
    140  O         31.8680   11.2870   21.9270 O.2    93  GLU93      -0.2718
    141  CB        34.4370    9.5590   21.8110 C.3    93  GLU93       0.0402
    142  CG        34.8830    9.9060   20.3820 C.3    93  GLU93       0.1161
    143  CD        35.5330    8.7290   19.6230 C.2    93  GLU93       0.3649
    144  OE1       35.6980    7.6200   20.1970 O.co2  93  GLU93      -0.2457
    145  OE2       35.8830    8.9230   18.4310 O.co2  93  GLU93      -0.2457
    146  N         33.4500   12.8780   21.6350 N.am   94  ARG94      -0.1966
    147  CA        32.5250   13.8570   21.0640 C.3    94  ARG94       0.1729
    148  C         31.4700   14.3390   22.0630 C.2    94  ARG94       0.2616
    149  O         31.4200   13.8990   23.2030 O.2    94  ARG94      -0.2715
    150  CB        31.8430   13.3140   19.8070 C.3    94  ARG94       0.0348
    151  CG        32.7400   13.1400   18.6080 C.3    94  ARG94       0.0492
    152  CD        32.9440   14.4410   17.8850 C.3    94  ARG94       0.2205
    153  NE        33.7610   14.2370   16.6950 N.pl3  94  ARG94      -0.0865
    154  CZ        34.3470   15.2080   16.0100 C.cat  94  ARG94       0.5346
    155  NH1       34.2120   16.4810   16.4010 N.pl3  94  ARG94       0.1354
    156  NH2       35.0710   14.9100   14.9360 N.pl3  94  ARG94       0.1354
    157  N         30.6380   15.2670   21.6120 N.am   95  SER95      -0.1950
    158  CA        29.6280   15.8880   22.4460 C.3    95  SER95       0.1924
    159  C         28.5540   16.4590   21.5290 C.2    95  SER95       0.2314
    160  O         28.7670   16.5980   20.3300 O.2    95  SER95      -0.2863
    161  CB        30.2650   17.0260   23.2340 C.3    95  SER95       0.2116
    162  OG        30.6080   18.0640   22.3440 O.3    95  SER95      -0.2180
    163  N         30.1060   19.7460   19.4680 N.3    98  SER98      -0.1202
    164  CA        30.7880   19.6660   18.1560 C.3    98  SER98       0.2020
    165  C         29.8410   19.4140   16.9990 C.2    98  SER98       0.2618
    166  O         30.0800   19.8920   15.8920 O.2    98  SER98      -0.2717
    167  CB        31.9520   18.6680   18.1170 C.3    98  SER98       0.2103
    168  OG        31.6450   17.4210   18.7150 O.3    98  SER98      -0.2182
    169  N         28.7830   18.6520   17.2470 N.am   99  ALA99      -0.1979
    170  CA        27.7410   18.4460   16.2410 C.3    99  ALA99       0.1597
    171  C         27.1080   19.7800   15.9250 C.2    99  ALA99       0.2287
    172  O         26.9390   20.1250   14.7470 O.2    99  ALA99      -0.2864
    173  CB        26.7150   17.4700   16.7270 C.3    99  ALA99       0.0319
    174  N         29.9950   20.4910   12.6890 N.3   103  PHE103     -0.1241
    175  CA        29.3270   19.8120   11.5810 C.3   103  PHE103      0.1605
    176  C         28.0900   20.5400   11.0500 C.2   103  PHE103      0.2264
    177  O         28.0180   20.8120    9.8510 O.2   103  PHE103     -0.2867
    178  CB        29.0110   18.3610   11.9300 C.3   103  PHE103      0.0534
    179  CG        30.2310   17.5130   12.0870 C.ar  103  PHE103     -0.0203
    180  CD1       30.8800   17.4110   13.3300 C.ar  103  PHE103     -0.0042
    181  CD2       30.7620   16.8340   10.9960 C.ar  103  PHE103     -0.0042
    182  CE1       32.0200   16.6190   13.4810 C.ar  103  PHE103     -0.0003
    183  CE2       31.9040   16.0410   11.1440 C.ar  103  PHE103     -0.0003
    184  CZ        32.5330   15.9450   12.3910 C.ar  103  PHE103     -0.0000
    185  N         27.7070   22.2890    7.2720 N.3   107  MET107     -0.1245
    186  CA        26.7520   21.7790    6.3100 C.3   107  MET107      0.1570
    187  C         25.7400   22.8380    5.9290 C.2   107  MET107      0.2261
    188  O         25.0870   22.7250    4.8980 O.2   107  MET107     -0.2867
    189  CB        26.0100   20.5980    6.8960 C.3   107  MET107      0.0387
    190  CG        26.7770   19.3280    6.9290 C.3   107  MET107      0.0595
    191  SD        25.8330   18.2880    8.0180 S.3   107  MET107     -0.1393
    192  CE        26.7690   16.7460    7.9730 C.3   107  MET107      0.0692
    193  N         42.9210    3.9300    8.3950 N.3   156  ARG156     -0.1245
    194  CA        41.8340    3.2710    9.1240 C.3   156  ARG156      0.1563
    195  C         40.8860    2.6300    8.1220 C.2   156  ARG156      0.2260
    196  O         40.4790    1.4770    8.3000 O.2   156  ARG156     -0.2867
    197  CB        41.0960    4.2580   10.0410 C.3   156  ARG156      0.0307
    198  CG        39.8850    3.6810   10.7680 C.3   156  ARG156      0.0489
    199  CD        39.2370    4.7040   11.6940 C.3   156  ARG156      0.2205
    200  NE        38.6640    5.8310   10.9590 N.pl3 156  ARG156     -0.0865
    201  CZ        38.4990    7.0470   11.4720 C.cat 156  ARG156      0.5346
    202  NH1       38.8600    7.2930   12.7240 N.pl3 156  ARG156      0.1354
    203  NH2       37.9790    8.0220   10.7340 N.pl3 156  ARG156      0.1354
    204  N         37.6090    3.2680    6.6410 N.3   158  ARG158     -0.1245
    205  CA        36.1710    3.0340    6.6620 C.3   158  ARG158      0.1563
    206  C         35.5960    3.2080    5.2550 C.2   158  ARG158      0.2260
    207  O         35.7160    4.2820    4.6690 O.2   158  ARG158     -0.2867
    208  CB        35.4770    3.9810    7.6330 C.3   158  ARG158      0.0307
    209  CG        35.7180    3.6700    9.1010 C.3   158  ARG158      0.0489
    210  CD        34.8060    4.5250    9.9820 C.3   158  ARG158      0.2205
    211  NE        35.3230    4.5960   11.3390 N.pl3 158  ARG158     -0.0865
    212  CZ        35.3240    5.6940   12.0820 C.cat 158  ARG158      0.5346
    213  NH1       34.8210    6.8280   11.6040 N.pl3 158  ARG158      0.1354
    214  NH2       35.8390    5.6590   13.3070 N.pl3 158  ARG158      0.1354
    215  N         33.8850    6.3560    4.5000 N.3   161  GLU161     -0.1245
    216  CA        34.7160    7.5680    4.5080 C.3   161  GLU161      0.1567
    217  C         35.6790    7.7400    3.3160 C.2   161  GLU161      0.2260
    218  O         36.4550    8.7090    3.2720 O.2   161  GLU161     -0.2867
    219  CB        35.4900    7.6610    5.8250 C.3   161  GLU161      0.0388
    220  CG        34.6000    7.9060    7.0300 C.3   161  GLU161      0.1160
    221  CD        35.3560    7.9100    8.3420 C.2   161  GLU161      0.3649
    222  OE1       36.5130    7.4440    8.3790 O.co2 161  GLU161     -0.2457
    223  OE2       34.7880    8.3820    9.3420 O.co2 161  GLU161     -0.2457
    224  N         37.1500   19.4960    3.0890 N.3   168  TYR168     -0.1241
    225  CA        36.1950   19.2610    4.1540 C.3   168  TYR168      0.1605
    226  C         36.8640   19.2050    5.5220 C.2   168  TYR168      0.2264
    227  O         36.4070   19.8600    6.4720 O.2   168  TYR168     -0.2867
    228  CB        35.4450   17.9660    3.8600 C.3   168  TYR168      0.0534
    229  CG        34.3060   17.6330    4.7890 C.ar  168  TYR168     -0.0201
    230  CD1       33.1560   18.4320    4.8310 C.ar  168  TYR168     -0.0009
    231  CD2       34.3530   16.4890    5.5890 C.ar  168  TYR168     -0.0009
    232  CE1       32.0960   18.1130    5.6660 C.ar  168  TYR168      0.0417
    233  CE2       33.2850   16.1540    6.4230 C.ar  168  TYR168      0.0417
    234  CZ        32.1660   16.9700    6.4570 C.ar  168  TYR168      0.1957
    235  OH        31.1160   16.6570    7.2820 O.3   168  TYR168     -0.2866
@<TRIPOS>BOND
     1    93    92    2
     2    92    91    1
     3    91    94    1
     4    91    90    1
     5    94    95    1
     6    85    84    2
     7   224   225    1
     8   218   217    2
     9   217   216    1
    10    90    84   am
    11    84    83    1
    12   228   225    1
    13   228   229    1
    14    97    95   ar
    15    97    99   ar
    16    95    96   ar
    17   225   226    1
    18    82    83    1
    19    83    86    1
    20   215   216    1
    21   216   219    1
    22   207   206    2
    23   229   230   ar
    24   229   231   ar
    25   230   232   ar
    26   188   187    2
    27    99   100   ar
    28    96    98   ar
    29   206   205    1
    30   226   227    2
    31   231   233   ar
    32   232   234   ar
    33    77    76    2
    34   219   220    1
    35    86    87    1
    36    88    87    1
    37    88    89    1
    38   187   186    1
    39   100    98   ar
    40   100   101    1
    41   186   189    1
    42   186   185    1
    43   233   234   ar
    44    76    75    1
    45   234   235    1
    46   204   205    1
    47   205   208    1
    48   189   190    1
    49   190   191    1
    50   220   221    1
    51   208   209    1
    52    75    74    1
    53    75    78    1
    54   192   191    1
    55   195   196    2
    56   195   194    1
    57   221   222   ar
    58   221   223   ar
    59   193   194    1
    60    79    78    1
    61    79    81    1
    62    79    80    1
    63   106   107    1
    64   106   103    1
    65   209   210    1
    66   194   197    1
    67     8     6    1
    68   102   103    1
    69   107   108   ar
    70   107   109   ar
    71   108   110   ar
    72   177   176    2
    73   210   211    1
    74   103   104    1
    75   197   198    1
    76   109   111   ar
    77   110   112   ar
    78     7     5    1
    79     6     5    1
    80     5     2    1
    81   203   201    1
    82   111   112   ar
    83   198   199    1
    84    63    62    2
    85   200   201    2
    86   200   199    1
    87   118   117    1
    88   118   119    1
    89   181   183   ar
    90   181   179   ar
    91   176   175    1
    92   113   104   am
    93   113   114    1
    94   183   184   ar
    95   104   105    2
    96   211   212    2
    97     4     3    2
    98   201   202    1
    99   120   119    2
   100   175   178    1
   101   175   174    1
   102   213   212    1
   103   117   114    1
   104   119   121   am
   105    62    61    1
   106   178   179    1
   107     3     2    1
   108     3     9   am
   109   212   214    1
   110   179   180   ar
   111     2     1    1
   112   114   115    1
   113   184   182   ar
   114    10     9    1
   115    10    11    1
   116    58    57    1
   117    64    61    1
   118    64    65    1
   119    12    11    2
   120    61    60    1
   121   115   116    2
   122   180   182   ar
   123    11    13   am
   124    56    55    2
   125   128   126    1
   126    57    59    1
   127    57    54    1
   128    70    67   ar
   129    70    72   ar
   130    65    67   ar
   131    65    66   ar
   132    13    14    1
   133    67    69   ar
   134    55    54    1
   135    72    73   ar
   136   172   171    2
   137    54    53    1
   138   156   154    1
   139   126   123    1
   140   126   127    1
   141    66    68   ar
   142   122   123    1
   143    14    17    1
   144    14    15    1
   145    69    68   ar
   146    69    71   ar
   147    17    18    1
   148   123   124    1
   149   166   165    2
   150    73    71   ar
   151   171   170    1
   152   154   155    1
   153   154   153    2
   154    53    48   am
   155   170   173    1
   156   170   169    1
   157    15    19   am
   158    15    16    2
   159    19    20    1
   160    31    30    1
   161   153   152    1
   162    49    48    2
   163   165   169   am
   164   165   164    1
   165    48    47    1
   166   124   125    2
   167    20    21    1
   168    30    29    1
   169   152   151    1
   170    44    43    1
   171   167   164    1
   172   167   168    1
   173   164   163    1
   174    37    36    1
   175   145   143   ar
   176    23    21   am
   177    23    24    1
   178    47    50    1
   179    47    46    1
   180   151   150    1
   181    21    22    2
   182    29    28    1
   183    36    38    1
   184    36    33    1
   185    50    51    1
   186    51    52    1
   187    46    52    1
   188    28    27    1
   189    43    45    1
   190    43    40    1
   191    27    24    1
   192    32    33    1
   193    32    25   am
   194   143   144   ar
   195   143   142    1
   196    24    25    1
   197   150   147    1
   198    39    40    1
   199    39    34   am
   200    33    34    1
   201   134   135    1
   202   134   133    1
   203    40    41    1
   204   160   159    2
   205    25    26    2
   206   142   141    1
   207    34    35    2
   208   136   135    1
   209   129   130    1
   210   147   146    1
   211   147   148    1
   212   133   130    1
   213   159   158    1
   214   157   148   am
   215   157   158    1
   216    41    42    2
   217   146   139   am
   218   141   138    1
   219   140   139    2
   220   130   131    1
   221   139   138    1
   222   148   149    2
   223   162   161    1
   224   158   161    1
   225   138   137    1
   226   131   132    2
