@<TRIPOS>MOLECULE
tmp/2vp4D00.pdb
 224 216 0 0 0
SMALL
GASTEIGER

@<TRIPOS>ATOM
      1  N         -3.8570  -22.6910   12.6340 N.3    18  ILE18      -0.1231
      2  CA        -5.1820  -22.6580   12.0570 C.3    18  ILE18       0.1692
      3  C         -5.6490  -24.0920   11.8920 C.2    18  ILE18       0.2593
      4  O         -4.9060  -24.9490   11.3790 O.2    18  ILE18      -0.2718
      5  CB        -5.2010  -21.9740   10.6400 C.3    18  ILE18       0.0266
      6  CG1       -4.5250  -20.6070   10.6580 C.3    18  ILE18       0.0019
      7  CG2       -6.6330  -21.8130   10.1130 C.3    18  ILE18       0.0020
      8  CD1       -4.2560  -20.0170    9.2520 C.3    18  ILE18       0.0001
      9  N         -6.8900  -24.3360   12.3160 N.am   19  GLY19      -0.1942
     10  CA        -7.5370  -25.6270   12.1790 C.3    19  GLY19       0.2014
     11  C         -7.0250  -26.6940   13.1190 C.2    19  GLY19       0.2640
     12  O         -7.2310  -27.8770   12.8770 O.2    19  GLY19      -0.2714
     13  N         -6.3620  -26.2950   14.1950 N.am   20  SER20      -0.1935
     14  CA        -5.7970  -27.2560   15.1360 C.3    20  SER20       0.2055
     15  C         -6.8370  -27.8350   16.1130 C.2    20  SER20       0.2644
     16  O         -6.5560  -28.8110   16.8080 O.2    20  SER20      -0.2714
     17  CB        -4.6240  -26.6470   15.9150 C.3    20  SER20       0.2130
     18  OG        -5.0290  -25.4930   16.6300 O.3    20  SER20      -0.2179
     19  N         -8.0190  -27.2260   16.1650 N.am   21  GLY21      -0.1939
     20  CA        -9.1060  -27.6570   17.0530 C.3    21  GLY21       0.2014
     21  C         -9.1640  -26.9310   18.3790 C.2    21  GLY21       0.2639
     22  O         -9.4380  -27.5450   19.4190 O.2    21  GLY21      -0.2714
     23  N         -8.9120  -25.6240   18.3570 N.am   22  LYS22      -0.1963
     24  CA        -8.9240  -24.7910   19.5820 C.3    22  LYS22       0.1728
     25  C        -10.3330  -24.5490   20.1300 C.2    22  LYS22       0.2617
     26  O        -10.5440  -24.6030   21.3370 O.2    22  LYS22      -0.2715
     27  CB        -8.2310  -23.4370   19.3520 C.3    22  LYS22       0.0311
     28  CG        -6.7740  -23.5270   18.9100 C.3    22  LYS22       0.0038
     29  CD        -6.1280  -22.1530   18.7350 C.3    22  LYS22       0.0206
     30  CE        -6.4590  -21.4800   17.4030 C.3    22  LYS22       0.1093
     31  NZ        -6.2680  -22.3690   16.1870 N.3    22  LYS22      -0.1314
     32  N        -11.2830  -24.2540   19.2460 N.am   23  THR23      -0.1937
     33  CA       -12.6860  -24.0350   19.6520 C.3    23  THR23       0.2028
     34  C        -13.3050  -25.3570   20.1450 C.2    23  THR23       0.2642
     35  O        -13.9590  -25.3970   21.1770 O.2    23  THR23      -0.2714
     36  CB       -13.5230  -23.4090   18.5030 C.3    23  THR23       0.1808
     37  OG1      -12.9350  -22.1600   18.1150 O.3    23  THR23      -0.2208
     38  CG2      -14.9700  -23.1680   18.9400 C.3    23  THR23       0.0379
     39  N        -13.0540  -26.4390   19.4140 N.am   24  THR24      -0.1950
     40  CA       -13.4700  -27.7710   19.8430 C.3    24  THR24       0.1897
     41  C        -12.9300  -28.0810   21.2450 C.2    24  THR24       0.2313
     42  O        -13.6890  -28.4890   22.1260 O.2    24  THR24      -0.2863
     43  CB       -13.0450  -28.8440   18.8210 C.3    24  THR24       0.1794
     44  OG1      -13.6230  -28.5290   17.5440 O.3    24  THR24      -0.2208
     45  CG2      -13.5050  -30.2320   19.2510 C.3    24  THR24       0.0378
     46  N        -13.5960  -18.4500   20.1330 N.3    41  GLU41      -0.1231
     47  CA       -13.9220  -18.1720   18.7340 C.3    41  GLU41       0.1684
     48  C        -13.8940  -16.6900   18.2850 C.2    41  GLU41       0.2434
     49  O        -14.8740  -16.1770   17.7290 O.2    41  GLU41      -0.2733
     50  CB       -15.2130  -18.8740   18.3440 C.3    41  GLU41       0.0402
     51  CG       -15.2270  -19.3120   16.8940 C.3    41  GLU41       0.1161
     52  CD       -16.2150  -20.4300   16.6360 C.2    41  GLU41       0.3649
     53  OE1      -17.2120  -20.5520   17.4010 O.co2  41  GLU41      -0.2457
     54  OE2      -15.9920  -21.1850   15.6580 O.co2  41  GLU41      -0.2457
     55  N        -12.7390  -16.0160   18.4790 N.am   42  PRO42      -0.2718
     56  CA       -12.6080  -14.6090   18.0880 C.3    42  PRO42       0.1535
     57  C        -12.7900  -14.3650   16.5890 C.2    42  PRO42       0.2598
     58  O        -13.1510  -13.2550   16.2120 O.2    42  PRO42      -0.2715
     59  CB       -11.1720  -14.2590   18.5110 C.3    42  PRO42       0.0310
     60  CG       -10.4470  -15.5870   18.5070 C.3    42  PRO42       0.0237
     61  CD       -11.4870  -16.5370   19.0560 C.3    42  PRO42       0.0939
     62  N        -12.5430  -15.3760   15.7420 N.am   43  VAL43      -0.1978
     63  CA       -12.7460  -15.2400   14.2800 C.3    43  VAL43       0.1596
     64  C        -14.1450  -14.7090   13.9110 C.2    43  VAL43       0.2287
     65  O        -14.3170  -14.0660   12.8910 O.2    43  VAL43      -0.2864
     66  CB       -12.3920  -16.5560   13.4810 C.3    43  VAL43       0.0276
     67  CG1      -13.4160  -17.6850   13.7200 C.3    43  VAL43       0.0022
     68  CG2      -12.2450  -16.2870   11.9920 C.3    43  VAL43       0.0022
     69  N        -13.9820  -10.9160   13.7410 N.3    46  TRP46      -0.1241
     70  CA       -13.2150  -10.4720   12.5680 C.3    46  TRP46       0.1605
     71  C        -13.9940  -10.5650   11.2440 C.2    46  TRP46       0.2264
     72  O        -13.7360   -9.8220   10.2920 O.2    46  TRP46      -0.2867
     73  CB       -11.8900  -11.2340   12.4860 C.3    46  TRP46       0.0550
     74  CG       -11.1770  -11.3060   13.8120 C.ar   46  TRP46       0.0003
     75  CD1      -11.2350  -10.3950   14.8220 C.ar   46  TRP46       0.0946
     76  CD2      -10.2940  -12.3410   14.2600 C.ar   46  TRP46       0.0152
     77  NE1      -10.4670  -10.7970   15.8760 N.ar   46  TRP46      -0.2442
     78  CE2       -9.8710  -11.9900   15.5590 C.ar   46  TRP46       0.0810
     79  CE3       -9.8210  -13.5290   13.6910 C.ar   46  TRP46       0.0012
     80  CZ2       -8.9910  -12.7800   16.2960 C.ar   46  TRP46       0.0191
     81  CZ3       -8.9630  -14.3120   14.4240 C.ar   46  TRP46       0.0001
     82  CH2       -8.5500  -13.9350   15.7160 C.ar   46  TRP46       0.0015
     83  N        -11.6180  -10.3630    7.6750 N.3    55  LEU55      -0.1245
     84  CA       -10.9010  -11.6120    7.3290 C.3    55  LEU55       0.1561
     85  C        -10.8770  -11.8400    5.8200 C.2    55  LEU55       0.2260
     86  O         -9.8140  -12.0780    5.2350 O.2    55  LEU55      -0.2867
     87  CB       -11.4850  -12.8460    8.0430 C.3    55  LEU55       0.0270
     88  CG       -10.7830  -14.2130    7.8810 C.3    55  LEU55       0.0019
     89  CD1       -9.4370  -14.3010    8.5900 C.3    55  LEU55       0.0001
     90  CD2      -11.6950  -15.3380    8.3680 C.3    55  LEU55       0.0001
     91  N         -8.7410   -9.1720    4.1030 N.3    58  MET58      -0.1230
     92  CA        -7.3430   -9.4910    4.3180 C.3    58  MET58       0.1702
     93  C         -6.9300  -10.5450    3.3060 C.2    58  MET58       0.2592
     94  O         -5.9360  -10.3770    2.6080 O.2    58  MET58      -0.2718
     95  CB        -7.0730   -9.9730    5.7550 C.3    58  MET58       0.0401
     96  CG        -5.5730  -10.3430    6.0440 C.3    58  MET58       0.0596
     97  SD        -5.1440  -12.0980    5.7700 S.3    58  MET58      -0.1393
     98  CE        -6.0780  -12.8940    7.0770 C.3    58  MET58       0.0692
     99  N         -7.6940  -11.6310    3.2160 N.am   59  TYR59      -0.1976
    100  CA        -7.3130  -12.7240    2.3160 C.3    59  TYR59       0.1639
    101  C         -7.3200  -12.3210    0.8440 C.2    59  TYR59       0.2290
    102  O         -6.4130  -12.6910    0.0980 O.2    59  TYR59      -0.2864
    103  CB        -8.1560  -13.9760    2.5750 C.3    59  TYR59       0.0560
    104  CG        -7.6020  -14.8330    3.7030 C.ar   59  TYR59      -0.0198
    105  CD1       -8.3510  -15.0910    4.8400 C.ar   59  TYR59      -0.0009
    106  CD2       -6.3110  -15.3520    3.6340 C.ar   59  TYR59      -0.0009
    107  CE1       -7.8370  -15.8750    5.8750 C.ar   59  TYR59       0.0417
    108  CE2       -5.7860  -16.1190    4.6570 C.ar   59  TYR59       0.0417
    109  CZ        -6.5520  -16.3790    5.7710 C.ar   59  TYR59       0.1957
    110  OH        -6.0320  -17.1510    6.7780 O.3    59  TYR59      -0.2866
    111  N         -6.6350   -5.4540    9.5270 N.3    69  PHE69      -0.1227
    112  CA        -7.0080   -6.7450   10.0830 C.3    69  PHE69       0.1736
    113  C         -6.2290   -7.0620   11.3640 C.2    69  PHE69       0.2595
    114  O         -6.8470   -7.2950   12.4100 O.2    69  PHE69      -0.2718
    115  CB        -6.8570   -7.8740    9.0400 C.3    69  PHE69       0.0547
    116  CG        -7.1690   -9.2340    9.5850 C.ar   69  PHE69      -0.0202
    117  CD1       -8.4890   -9.6290    9.7780 C.ar   69  PHE69      -0.0042
    118  CD2       -6.1380  -10.1030    9.9550 C.ar   69  PHE69      -0.0042
    119  CE1       -8.7890  -10.8910   10.3120 C.ar   69  PHE69      -0.0003
    120  CE2       -6.4240  -11.3750   10.4790 C.ar   69  PHE69      -0.0003
    121  CZ        -7.7530  -11.7680   10.6600 C.ar   69  PHE69      -0.0000
    122  N         -4.8880   -7.0810   11.3020 N.am   70  GLN70      -0.1979
    123  CA        -4.1210   -7.4610   12.4980 C.3    70  GLN70       0.1601
    124  C         -4.3550   -6.4570   13.6380 C.2    70  GLN70       0.2287
    125  O         -4.2990   -6.7970   14.8210 O.2    70  GLN70      -0.2864
    126  CB        -2.6050   -7.6100   12.2240 C.3    70  GLN70       0.0394
    127  CG        -2.2060   -8.8050   11.3540 C.3    70  GLN70       0.0908
    128  CD        -2.7370  -10.1680   11.8450 C.2    70  GLN70       0.2608
    129  OE1       -2.8980  -11.1010   11.0470 O.2    70  GLN70      -0.2717
    130  NE2       -2.9580  -10.3000   13.1550 N.am   70  GLN70      -0.0878
    131  N         -7.4760   -7.4760   15.2250 N.3    73  VAL73      -0.1245
    132  CA        -7.2530   -8.7140   15.9730 C.3    73  VAL73       0.1561
    133  C         -6.6100   -8.4040   17.3060 C.2    73  VAL73       0.2260
    134  O         -7.0220   -8.9410   18.3310 O.2    73  VAL73      -0.2867
    135  CB        -6.3340   -9.7340   15.2220 C.3    73  VAL73       0.0252
    136  CG1       -5.9420  -10.8830   16.1440 C.3    73  VAL73       0.0019
    137  CG2       -7.0040  -10.2650   13.9830 C.3    73  VAL73       0.0019
    138  N         -9.3770  -18.5050   23.7560 N.3    93  GLU93      -0.1231
    139  CA        -8.8270  -18.9530   22.4870 C.3    93  GLU93       0.1699
    140  C         -7.8810  -17.8880   21.9250 C.2    93  GLU93       0.2592
    141  O         -8.2850  -16.7400   21.7050 O.2    93  GLU93      -0.2718
    142  CB        -9.9530  -19.1880   21.4980 C.3    93  GLU93       0.0402
    143  CG        -9.4770  -19.7830   20.1940 C.3    93  GLU93       0.1161
    144  CD       -10.5850  -20.3980   19.3950 C.2    93  GLU93       0.3649
    145  OE1      -11.7030  -20.5520   19.9340 O.co2  93  GLU93      -0.2457
    146  OE2      -10.3400  -20.7290   18.2210 O.co2  93  GLU93      -0.2457
    147  N         -6.6250  -18.2760   21.7070 N.am   94  ARG94      -0.1980
    148  CA        -5.5780  -17.3840   21.2030 C.3    94  ARG94       0.1597
    149  C         -5.2610  -16.2350   22.1810 C.2    94  ARG94       0.2287
    150  O         -5.7650  -16.2100   23.3090 O.2    94  ARG94      -0.2864
    151  CB        -5.9080  -16.8660   19.7990 C.3    94  ARG94       0.0334
    152  CG        -5.8070  -17.9410   18.7010 C.3    94  ARG94       0.0492
    153  CD        -5.1110  -17.3710   17.4890 C.3    94  ARG94       0.2205
    154  NE        -5.0560  -18.2870   16.3520 N.pl3  94  ARG94      -0.0865
    155  CZ        -4.0350  -19.1020   16.0990 C.cat  94  ARG94       0.5346
    156  NH1       -2.9970  -19.1570   16.9390 N.pl3  94  ARG94       0.1354
    157  NH2       -4.0600  -19.8810   15.0140 N.pl3  94  ARG94       0.1354
    158  N         -0.8870  -13.2790   17.4890 N.3    99  ALA99      -0.1245
    159  CA        -0.9880  -12.2400   16.4480 C.3    99  ALA99       0.1562
    160  C          0.3920  -11.6300   16.2090 C.2    99  ALA99       0.2260
    161  O          0.8560  -11.5350   15.0800 O.2    99  ALA99      -0.2867
    162  CB        -1.9860  -11.1730   16.8420 C.3    99  ALA99       0.0290
    163  N          1.3760  -14.4480   13.3810 N.3   103  PHE103     -0.1241
    164  CA         0.7060  -13.9300   12.1820 C.3   103  PHE103      0.1605
    165  C          1.2980  -12.6390   11.5890 C.2   103  PHE103      0.2264
    166  O          1.5750  -12.5870   10.4020 O.2   103  PHE103     -0.2867
    167  CB        -0.7990  -13.8240   12.4090 C.3   103  PHE103      0.0534
    168  CG        -1.4750  -15.1680   12.5660 C.ar  103  PHE103     -0.0203
    169  CD1       -1.5560  -15.7870   13.8230 C.ar  103  PHE103     -0.0042
    170  CD2       -1.9970  -15.8270   11.4600 C.ar  103  PHE103     -0.0042
    171  CE1       -2.1830  -17.0280   13.9700 C.ar  103  PHE103     -0.0003
    172  CE2       -2.6390  -17.0780   11.5990 C.ar  103  PHE103     -0.0003
    173  CZ        -2.7190  -17.6770   12.8580 C.ar  103  PHE103     -0.0000
    174  N          3.2940  -12.3840    8.0480 N.3   107  MET107     -0.1245
    175  CA         2.8400  -11.4250    7.0360 C.3   107  MET107      0.1570
    176  C          3.9060  -10.3910    6.6730 C.2   107  MET107      0.2261
    177  O          3.8730   -9.7990    5.5860 O.2   107  MET107     -0.2867
    178  CB         1.5610  -10.7500    7.4960 C.3   107  MET107      0.0387
    179  CG         0.4210  -11.7440    7.6190 C.3   107  MET107      0.0595
    180  SD        -1.1680  -10.9550    7.7190 S.3   107  MET107     -0.1393
    181  CE        -2.2460  -12.3360    8.1530 C.3   107  MET107      0.0692
    182  N        -13.4960  -27.9730    6.7540 N.3   156  ARG156     -0.1245
    183  CA       -14.3150  -26.8710    7.2710 C.3   156  ARG156      0.1563
    184  C        -14.8190  -26.0080    6.1070 C.2   156  ARG156      0.2260
    185  O        -15.9840  -25.6090    6.0830 O.2   156  ARG156     -0.2867
    186  CB       -13.5150  -26.0560    8.3090 C.3   156  ARG156      0.0307
    187  CG       -14.1420  -24.7430    8.8000 C.3   156  ARG156      0.0489
    188  CD       -13.3480  -24.1680    9.9760 C.3   156  ARG156      0.2205
    189  NE       -12.0840  -23.5050    9.5980 N.pl3 156  ARG156     -0.0865
    190  CZ       -11.0300  -23.3980   10.4150 C.cat 156  ARG156      0.5346
    191  NH1      -11.0660  -23.9220   11.6370 N.pl3 156  ARG156      0.1354
    192  NH2       -9.9360  -22.7750   10.0200 N.pl3 156  ARG156      0.1354
    193  N        -14.3090  -22.8280    4.9840 N.3   158  ARG158     -0.1245
    194  CA       -14.5860  -21.3770    5.0630 C.3   158  ARG158      0.1563
    195  C        -14.2590  -20.7050    3.7470 C.2   158  ARG158      0.2260
    196  O        -13.1680  -20.8830    3.2350 O.2   158  ARG158     -0.2867
    197  CB       -13.6910  -20.7130    6.0980 C.3   158  ARG158      0.0307
    198  CG       -14.0090  -21.0220    7.5290 C.3   158  ARG158      0.0489
    199  CD       -13.5790  -19.8570    8.4290 C.3   158  ARG158      0.2205
    200  NE       -13.9110  -20.1870    9.8020 N.pl3 158  ARG158     -0.0865
    201  CZ       -13.0350  -20.3910   10.7800 C.cat 158  ARG158      0.5346
    202  NH1      -11.7270  -20.2330   10.5770 N.pl3 158  ARG158      0.1354
    203  NH2      -13.4870  -20.7240   11.9870 N.pl3 158  ARG158      0.1354
    204  N        -10.9080  -18.7980    3.5990 N.3   161  GLU161     -0.1245
    205  CA        -9.7010  -19.5880    3.6440 C.3   161  GLU161      0.1567
    206  C         -9.5200  -20.4630    2.3970 C.2   161  GLU161      0.2260
    207  O         -8.6990  -21.3760    2.4010 O.2   161  GLU161     -0.2867
    208  CB        -9.6730  -20.4250    4.9350 C.3   161  GLU161      0.0388
    209  CG        -9.8170  -19.5800    6.1900 C.3   161  GLU161      0.1160
    210  CD        -9.9630  -20.3780    7.4650 C.2   161  GLU161      0.3649
    211  OE1      -10.2240  -21.6050    7.4060 O.co2 161  GLU161     -0.2457
    212  OE2       -9.8410  -19.7560    8.5430 O.co2 161  GLU161     -0.2457
    213  N          1.7410  -21.8060    3.8200 N.3   168  TYR168     -0.1241
    214  CA         1.3670  -20.8120    4.8110 C.3   168  TYR168      0.1605
    215  C          1.1920  -21.4880    6.1670 C.2   168  TYR168      0.2264
    216  O          1.6420  -20.9780    7.1970 O.2   168  TYR168     -0.2867
    217  CB         0.0700  -20.1380    4.3590 C.3   168  TYR168      0.0534
    218  CG        -0.3640  -18.9420    5.1710 C.ar  168  TYR168     -0.0201
    219  CD1        0.4350  -17.7960    5.2600 C.ar  168  TYR168     -0.0009
    220  CD2       -1.6000  -18.9300    5.7950 C.ar  168  TYR168     -0.0009
    221  CE1        0.0180  -16.6830    6.0040 C.ar  168  TYR168      0.0417
    222  CE2       -2.0280  -17.8350    6.5220 C.ar  168  TYR168      0.0417
    223  CZ        -1.2130  -16.7130    6.6210 C.ar  168  TYR168      0.1957
    224  OH        -1.6430  -15.6370    7.3400 O.3   168  TYR168     -0.2866
@<TRIPOS>BOND
     1   102   101    2
     2   101   100    1
     3   100   103    1
     4   100    99    1
     5   206   207    2
     6   206   205    1
     7   103   104    1
     8    94    93    2
     9    99    93   am
    10   196   195    2
    11    93    92    1
    12   204   205    1
    13   106   104   ar
    14   106   108   ar
    15   205   208    1
    16   104   105   ar
    17   195   194    1
    18   213   214    1
    19    91    92    1
    20    92    95    1
    21   217   214    1
    22   217   218    1
    23   108   109   ar
    24   214   215    1
    25   105   107   ar
    26   208   209    1
    27   193   194    1
    28   194   197    1
    29   218   219   ar
    30   218   220   ar
    31    86    85    2
    32   219   221   ar
    33   177   176    2
    34    95    96    1
    35    97    96    1
    36    97    98    1
    37   109   107   ar
    38   109   110    1
    39   220   222   ar
    40    85    84    1
    41   221   223   ar
    42   185   184    2
    43   197   198    1
    44   184   183    1
    45   215   216    2
    46   209   210    1
    47   222   223   ar
    48   223   224    1
    49   176   175    1
    50   182   183    1
    51   175   178    1
    52   175   174    1
    53   183   186    1
    54    84    83    1
    55    84    87    1
    56   211   210   ar
    57   210   212   ar
    58   178   179    1
    59   198   199    1
    60   179   180    1
    61   180   181    1
    62    88    87    1
    63    88    90    1
    64    88    89    1
    65   186   187    1
    66   199   200    1
    67   187   188    1
    68   115   116    1
    69   115   112    1
    70     8     6    1
    71   111   112    1
    72   116   117   ar
    73   116   118   ar
    74   189   188    1
    75   189   190    2
    76   117   119   ar
    77   200   201    2
    78   118   120   ar
    79   192   190    1
    80   112   113    1
    81     7     5    1
    82    72    71    2
    83   119   121   ar
    84   166   165    2
    85   190   191    1
    86   120   121   ar
    87   202   201    1
    88     5     6    1
    89     5     2    1
    90   201   203    1
    91   129   128    2
    92    71    70    1
    93   122   113   am
    94   122   123    1
    95   127   128    1
    96   127   126    1
    97   113   114    2
    98     4     3    2
    99   170   172   ar
   100   170   168   ar
   101   165   164    1
   102   172   173   ar
   103   128   130   am
   104     3     2    1
   105     3     9   am
   106    68    66    1
   107     2     1    1
   108    10     9    1
   109    10    11    1
   110   164   167    1
   111   164   163    1
   112   126   123    1
   113   167   168    1
   114    73    70    1
   115    73    74    1
   116   123   124    1
   117   168   169   ar
   118    70    69    1
   119   173   171   ar
   120    12    11    2
   121    65    64    2
   122    11    13   am
   123    66    67    1
   124    66    63    1
   125   124   125    2
   126    79    76   ar
   127    79    81   ar
   128    74    76   ar
   129    74    75   ar
   130   169   171   ar
   131    64    63    1
   132   137   135    1
   133    13    14    1
   134    76    78   ar
   135    63    62    1
   136    81    82   ar
   137    75    77   ar
   138   157   155    1
   139   161   160    2
   140    14    17    1
   141    14    15    1
   142   135   132    1
   143   135   136    1
   144   131   132    1
   145    78    77   ar
   146    78    80   ar
   147    54    52   ar
   148    82    80   ar
   149    62    57   am
   150    17    18    1
   151   132   133    1
   152   155   154    2
   153   155   156    1
   154    15    19   am
   155    15    16    2
   156    19    20    1
   157    31    30    1
   158   160   159    1
   159    58    57    2
   160   154   153    1
   161   159   162    1
   162   159   158    1
   163    57    56    1
   164    52    51    1
   165    52    53   ar
   166    51    50    1
   167    20    21    1
   168   133   134    2
   169    30    29    1
   170   153   152    1
   171    44    43    1
   172    49    48    2
   173    56    55    1
   174    56    59    1
   175    37    36    1
   176   146   144   ar
   177    48    55   am
   178    48    47    1
   179    50    47    1
   180    23    21   am
   181    23    24    1
   182    21    22    2
   183    55    61    1
   184    36    38    1
   185    36    33    1
   186    60    59    1
   187    60    61    1
   188   152   151    1
   189    47    46    1
   190    29    28    1
   191    43    45    1
   192    43    40    1
   193    28    27    1
   194    32    33    1
   195    32    25   am
   196    27    24    1
   197   144   145   ar
   198   144   143    1
   199    39    40    1
   200    39    34   am
   201    24    25    1
   202    33    34    1
   203   151   148    1
   204    40    41    1
   205    25    26    2
   206    34    35    2
   207   143   142    1
   208   148   147    1
   209   148   149    1
   210    41    42    2
   211   142   139    1
   212   141   140    2
   213   147   140   am
   214   140   139    1
   215   149   150    2
   216   139   138    1
