@<TRIPOS>MOLECULE
tmp/2vp6G00.pdb
 166 157 0 0 0
SMALL
GASTEIGER

@<TRIPOS>ATOM
      1  N         38.4370   66.2150  174.9490 N.3    18  ILE18      -0.1245
      2  CA        38.1250   64.8060  175.1570 C.3    18  ILE18       0.1561
      3  C         37.5580   64.3280  173.8420 C.2    18  ILE18       0.2260
      4  O         36.7080   65.0180  173.2540 O.2    18  ILE18      -0.2867
      5  CB        37.0150   64.5670  176.1970 C.3    18  ILE18       0.0252
      6  CG1       37.2400   65.4160  177.4490 C.3    18  ILE18       0.0019
      7  CG2       36.8910   63.0530  176.4980 C.3    18  ILE18       0.0019
      8  CD1       36.0550   65.4410  178.4220 C.3    18  ILE18       0.0001
      9  N         48.4530   59.8960  179.0710 N.3    41  GLU41      -0.1245
     10  CA        47.6800   60.4320  180.1770 C.3    41  GLU41       0.1567
     11  C         47.5520   59.3410  181.2420 C.2    41  GLU41       0.2260
     12  O         47.1940   58.2120  180.9300 O.2    41  GLU41      -0.2867
     13  CB        46.3100   60.8570  179.6850 C.3    41  GLU41       0.0388
     14  CG        45.8960   62.2230  180.1750 C.3    41  GLU41       0.1160
     15  CD        44.4390   62.5290  179.8710 C.2    41  GLU41       0.3649
     16  OE1       43.6250   61.5830  179.7200 O.co2  41  GLU41      -0.2457
     17  OE2       44.1020   63.7210  179.7830 O.co2  41  GLU41      -0.2457
     18  N         45.5990   58.1090  183.1110 N.3    43  VAL43      -0.1245
     19  CA        44.2250   57.6740  183.4120 C.3    43  VAL43       0.1561
     20  C         44.2450   56.4780  184.3790 C.2    43  VAL43       0.2260
     21  O         43.4340   56.4000  185.3090 O.2    43  VAL43      -0.2867
     22  CB        43.4860   57.2430  182.1390 C.3    43  VAL43       0.0252
     23  CG1       42.0090   57.2000  182.4060 C.3    43  VAL43       0.0019
     24  CG2       43.8260   58.1730  180.9500 C.3    43  VAL43       0.0019
     25  N         44.5760   57.4850  187.8640 N.3    46  TRP46      -0.1241
     26  CA        43.3520   58.1270  188.3210 C.3    46  TRP46       0.1605
     27  C         42.2330   57.1210  188.5670 C.2    46  TRP46       0.2264
     28  O         41.2840   57.3980  189.3190 O.2    46  TRP46      -0.2867
     29  CB        42.8520   59.1580  187.3140 C.3    46  TRP46       0.0550
     30  CG        43.8560   60.1050  186.8450 C.ar   46  TRP46       0.0003
     31  CD1       45.0300   60.4040  187.4440 C.ar   46  TRP46       0.0946
     32  CD2       43.7740   60.9220  185.6750 C.ar   46  TRP46       0.0152
     33  NE1       45.7060   61.3480  186.7150 N.ar   46  TRP46      -0.2442
     34  CE2       44.9480   61.6930  185.6240 C.ar   46  TRP46       0.0810
     35  CE3       42.8220   61.0810  184.6620 C.ar   46  TRP46       0.0012
     36  CZ2       45.1980   62.6280  184.5890 C.ar   46  TRP46       0.0191
     37  CZ3       43.0730   62.0020  183.6320 C.ar   46  TRP46       0.0001
     38  CH2       44.2490   62.7550  183.6020 C.ar   46  TRP46       0.0015
     39  N         38.2820   59.0000  189.0260 N.3    55  LEU55      -0.1245
     40  CA        37.7030   59.4440  187.7690 C.3    55  LEU55       0.1561
     41  C         36.2140   59.1700  187.7460 C.2    55  LEU55       0.2260
     42  O         35.4040   60.0500  187.4150 O.2    55  LEU55      -0.2867
     43  CB        38.3890   58.7380  186.6030 C.3    55  LEU55       0.0270
     44  CG        38.0730   59.2090  185.1760 C.3    55  LEU55       0.0019
     45  CD1       38.3570   60.6810  184.9920 C.3    55  LEU55       0.0001
     46  CD2       38.8760   58.3960  184.1750 C.3    55  LEU55       0.0001
     47  N         34.4610   61.3800  190.3320 N.3    58  MET58      -0.1230
     48  CA        34.3770   62.7500  189.8820 C.3    58  MET58       0.1702
     49  C         33.2000   62.9300  188.9220 C.2    58  MET58       0.2592
     50  O         32.4230   63.8810  189.0730 O.2    58  MET58      -0.2718
     51  CB        35.6900   63.1850  189.2460 C.3    58  MET58       0.0401
     52  CG        35.6920   64.6210  188.7640 C.3    58  MET58       0.0596
     53  SD        34.9950   64.8240  187.1090 S.3    58  MET58      -0.1393
     54  CE        36.3090   64.1250  186.0910 C.3    58  MET58       0.0692
     55  N         33.0680   62.0220  187.9470 N.am   59  TYR59      -0.1976
     56  CA        31.9880   62.1080  186.9440 C.3    59  TYR59       0.1639
     57  C         30.6280   61.8370  187.5270 C.2    59  TYR59       0.2290
     58  O         29.6650   62.4680  187.1170 O.2    59  TYR59      -0.2864
     59  CB        32.2310   61.2100  185.7300 C.3    59  TYR59       0.0560
     60  CG        33.0760   61.8730  184.6780 C.ar   59  TYR59      -0.0198
     61  CD1       34.3320   61.3620  184.3410 C.ar   59  TYR59      -0.0009
     62  CD2       32.6420   63.0310  184.0270 C.ar   59  TYR59      -0.0009
     63  CE1       35.1400   61.9810  183.3550 C.ar   59  TYR59       0.0417
     64  CE2       33.4400   63.6510  183.0480 C.ar   59  TYR59       0.0417
     65  CZ        34.6810   63.1170  182.7230 C.ar   59  TYR59       0.1957
     66  OH        35.4590   63.7080  181.7670 O.3    59  TYR59      -0.2866
     67  N         39.9390   64.8600  193.0000 N.3    69  PHE69      -0.1227
     68  CA        40.3420   64.3580  191.6940 C.3    69  PHE69       0.1736
     69  C         41.3400   65.2720  190.9490 C.2    69  PHE69       0.2595
     70  O         42.4150   64.8410  190.5350 O.2    69  PHE69      -0.2718
     71  CB        39.1150   64.1220  190.8200 C.3    69  PHE69       0.0547
     72  CG        39.4600   63.7860  189.4010 C.ar   69  PHE69      -0.0202
     73  CD1       39.9350   62.5130  189.0700 C.ar   69  PHE69      -0.0042
     74  CD2       39.3350   64.7450  188.3980 C.ar   69  PHE69      -0.0042
     75  CE1       40.2740   62.2080  187.7530 C.ar   69  PHE69      -0.0003
     76  CE2       39.6630   64.4430  187.0830 C.ar   69  PHE69      -0.0003
     77  CZ        40.1340   63.1730  186.7620 C.ar   69  PHE69      -0.0000
     78  N         40.9780   66.5340  190.7780 N.am   70  GLN70      -0.1979
     79  CA        41.8480   67.4650  190.1060 C.3    70  GLN70       0.1601
     80  C         43.1780   67.6350  190.8180 C.2    70  GLN70       0.2287
     81  O         44.2210   67.8100  190.1550 O.2    70  GLN70      -0.2864
     82  CB        41.1630   68.8100  189.9500 C.3    70  GLN70       0.0394
     83  CG        40.1320   68.8270  188.8450 C.3    70  GLN70       0.0908
     84  CD        40.6850   68.4800  187.5010 C.2    70  GLN70       0.2608
     85  OE1       39.9680   67.9350  186.6590 O.2    70  GLN70      -0.2717
     86  NE2       41.9660   68.7840  187.2800 N.am   70  GLN70      -0.0878
     87  N         45.0740   64.7580  189.7450 N.3    73  VAL73      -0.1245
     88  CA        45.5110   64.9730  188.3720 C.3    73  VAL73       0.1561
     89  C         46.7910   65.8050  188.3560 C.2    73  VAL73       0.2260
     90  O         47.8080   65.3700  187.8300 O.2    73  VAL73      -0.2867
     91  CB        44.3880   65.6300  187.4940 C.3    73  VAL73       0.0252
     92  CG1       44.9370   66.2170  186.1930 C.3    73  VAL73       0.0019
     93  CG2       43.3380   64.5940  187.1540 C.3    73  VAL73       0.0019
     94  N         50.3780   64.7260  186.8170 N.3    77  MET77      -0.1245
     95  CA        50.9830   65.5270  185.7750 C.3    77  MET77       0.1570
     96  C         52.4270   65.9200  186.1050 C.2    77  MET77       0.2261
     97  O         53.3120   65.8960  185.2370 O.2    77  MET77      -0.2867
     98  CB        50.1410   66.7730  185.4810 C.3    77  MET77       0.0387
     99  CG        48.8210   66.4740  184.7590 C.3    77  MET77       0.0595
    100  SD        49.0040   65.4310  183.2780 S.3    77  MET77      -0.1393
    101  CE        47.3050   65.3370  182.7380 C.3    77  MET77       0.0692
    102  N         48.4990   65.4170  177.0640 N.3    94  ARG94      -0.1245
    103  CA        47.9960   66.4150  178.0220 C.3    94  ARG94       0.1563
    104  C         49.1450   66.8600  178.9370 C.2    94  ARG94       0.2260
    105  O         50.2560   66.3280  178.8470 O.2    94  ARG94      -0.2867
    106  CB        46.8460   65.8280  178.8630 C.3    94  ARG94       0.0307
    107  CG        45.5560   65.5890  178.1040 C.3    94  ARG94       0.0489
    108  CD        44.5810   66.7430  178.3490 C.3    94  ARG94       0.2205
    109  NE        43.3780   66.6410  177.5310 N.pl3  94  ARG94      -0.0865
    110  CZ        42.4160   65.7390  177.7050 C.cat  94  ARG94       0.5346
    111  NH1       42.5200   64.8270  178.6590 N.pl3  94  ARG94       0.1354
    112  NH2       41.3500   65.7360  176.8940 N.pl3  94  ARG94       0.1354
    113  N         45.2490   70.8300  182.4290 N.3    99  ALA99      -0.1245
    114  CA        44.5810   70.6360  183.7140 C.3    99  ALA99       0.1562
    115  C         44.1680   71.9790  184.3400 C.2    99  ALA99       0.2260
    116  O         43.0290   72.1770  184.7510 O.2    99  ALA99      -0.2867
    117  CB        45.4970   69.8510  184.6680 C.3    99  ALA99       0.0290
    118  N         40.3270   72.1790  182.2710 N.3   103  PHE103     -0.1241
    119  CA        39.4450   71.4410  183.1680 C.3   103  PHE103      0.1605
    120  C         39.1630   72.1520  184.5080 C.2   103  PHE103      0.2264
    121  O         38.0100   72.3390  184.8930 O.2   103  PHE103     -0.2867
    122  CB        39.9490   70.0180  183.3640 C.3   103  PHE103      0.0534
    123  CG        40.0430   69.2290  182.0760 C.ar  103  PHE103     -0.0203
    124  CD1       41.2490   69.1360  181.3540 C.ar  103  PHE103     -0.0042
    125  CD2       38.9250   68.5740  181.5800 C.ar  103  PHE103     -0.0042
    126  CE1       41.3170   68.4120  180.1850 C.ar  103  PHE103     -0.0003
    127  CE2       38.9920   67.8530  180.3960 C.ar  103  PHE103     -0.0003
    128  CZ        40.1920   67.7810  179.7010 C.ar  103  PHE103     -0.0000
    129  N         35.4820   73.5360  185.5590 N.3   107  MET107     -0.1245
    130  CA        34.8310   73.0290  186.7550 C.3   107  MET107      0.1570
    131  C         34.4600   74.1000  187.7520 C.2   107  MET107      0.2261
    132  O         33.4830   73.9320  188.4830 O.2   107  MET107     -0.2867
    133  CB        35.6870   71.9730  187.4170 C.3   107  MET107      0.0387
    134  CG        35.3510   70.5950  186.9350 C.3   107  MET107      0.0595
    135  SD        36.8130   69.5320  187.0770 S.3   107  MET107     -0.1393
    136  CE        36.2350   68.0300  186.2930 C.3   107  MET107      0.0692
    137  N         33.1650   55.8810  181.3680 N.3   160  GLU160     -0.1231
    138  CA        32.7620   57.1430  182.1060 C.3   160  GLU160      0.1699
    139  C         32.5340   58.4810  181.3560 C.2   160  GLU160      0.2592
    140  O         31.4670   59.1040  181.5130 O.2   160  GLU160     -0.2718
    141  CB        33.6640   57.4400  183.3330 C.3   160  GLU160      0.0402
    142  CG        34.5600   56.3170  183.8440 C.3   160  GLU160      0.1161
    143  CD        35.9680   56.3530  183.2410 C.2   160  GLU160      0.3649
    144  OE1       36.2440   57.2280  182.3710 O.co2 160  GLU160     -0.2457
    145  OE2       36.7960   55.4910  183.6390 O.co2 160  GLU160     -0.2457
    146  N         33.5540   58.9430  180.6150 N.am  161  GLU161     -0.1979
    147  CA        33.4480   60.1170  179.7060 C.3   161  GLU161      0.1602
    148  C         32.3220   60.0430  178.6320 C.2   161  GLU161      0.2287
    149  O         32.1010   61.0070  177.8930 O.2   161  GLU161     -0.2864
    150  CB        34.8130   60.4700  179.0510 C.3   161  GLU161      0.0415
    151  CG        35.8050   59.3010  178.7850 C.3   161  GLU161      0.1163
    152  CD        36.8650   59.6270  177.7080 C.2   161  GLU161      0.3649
    153  OE1       36.4870   59.9030  176.5530 O.co2 161  GLU161     -0.2457
    154  OE2       38.0810   59.5890  177.9970 O.co2 161  GLU161     -0.2457
    155  N         29.1510   70.3220  177.8190 N.3   168  TYR168     -0.1241
    156  CA        30.4660   70.1680  178.4530 C.3   168  TYR168      0.1605
    157  C         31.6020   70.2750  177.4310 C.2   168  TYR168      0.2264
    158  O         32.5250   71.0840  177.5910 O.2   168  TYR168     -0.2867
    159  CB        30.5280   68.8200  179.2050 C.3   168  TYR168      0.0534
    160  CG        31.7000   68.6370  180.1600 C.ar  168  TYR168     -0.0201
    161  CD1       31.7660   69.3320  181.3820 C.ar  168  TYR168     -0.0009
    162  CD2       32.7180   67.7460  179.8580 C.ar  168  TYR168     -0.0009
    163  CE1       32.8340   69.1560  182.2620 C.ar  168  TYR168      0.0417
    164  CE2       33.7860   67.5480  180.7290 C.ar  168  TYR168      0.0417
    165  CZ        33.8480   68.2540  181.9280 C.ar  168  TYR168      0.1957
    166  OH        34.9390   68.0500  182.7640 O.3   168  TYR168     -0.2866
@<TRIPOS>BOND
     1     4     3    2
     2     3     2    1
     3     1     2    1
     4     2     5    1
     5     5     7    1
     6     5     6    1
     7   153   152   ar
     8   112   110    1
     9   102   103    1
    10   157   158    2
    11   157   156    1
    12     6     8    1
    13   109   110    2
    14   109   108    1
    15   110   111    1
    16   152   154   ar
    17   152   151    1
    18   155   156    1
    19   149   148    2
    20   103   106    1
    21   103   104    1
    22   107   108    1
    23   107   106    1
    24   156   159    1
    25   148   147    1
    26   151   150    1
    27   105   104    2
    28   150   147    1
    29     9    10    1
    30   159   160    1
    31    13    14    1
    32    13    10    1
    33   128   126   ar
    34   128   127   ar
    35   147   146    1
    36    16    15   ar
    37    17    15   ar
    38   162   160   ar
    39   162   164   ar
    40    15    14    1
    41   160   161   ar
    42    10    11    1
    43   126   124   ar
    44   127   125   ar
    45   146   139   am
    46   164   165   ar
    47    12    11    2
    48    24    22    1
    49   124   123   ar
    50   139   140    2
    51   139   138    1
    52   137   138    1
    53   161   163   ar
    54   125   123   ar
    55    66    65    1
    56   165   163   ar
    57   165   166    1
    58   123   122    1
    59   138   141    1
    60    22    23    1
    61    22    19    1
    62   118   119    1
    63   144   143   ar
    64   113   114    1
    65    65    64   ar
    66    65    63   ar
    67   101   100    1
    68    64    62   ar
    69    18    19    1
    70   119   122    1
    71   119   120    1
    72   143   145   ar
    73   143   142    1
    74   100    99    1
    75   141   142    1
    76    63    61   ar
    77    19    20    1
    78    38    37   ar
    79    38    36   ar
    80    37    35   ar
    81   114   115    1
    82   114   117    1
    83    62    60   ar
    84    46    44    1
    85   115   116    2
    86    61    60   ar
    87    20    21    2
    88   120   121    2
    89    36    34   ar
    90    35    32   ar
    91    60    59    1
    92    99    98    1
    93    45    44    1
    94    44    43    1
    95    97    96    2
    96    98    95    1
    97   129   130    1
    98    34    32   ar
    99    34    33   ar
   100    32    30   ar
   101    59    56    1
   102    95    96    1
   103    95    94    1
   104    54    53    1
   105    92    91    1
   106   136   135    1
   107    43    40    1
   108    85    84    2
   109    33    31   ar
   110   130   133    1
   111   130   131    1
   112    77    76   ar
   113    77    75   ar
   114    30    29    1
   115    30    31   ar
   116   134   135    1
   117   134   133    1
   118    56    57    1
   119    56    55    1
   120    76    74   ar
   121    53    52    1
   122    58    57    2
   123    93    91    1
   124    86    84   am
   125    29    26    1
   126    42    41    2
   127    91    88    1
   128    84    83    1
   129    41    40    1
   130   131   132    2
   131    75    73   ar
   132    40    39    1
   133    90    89    2
   134    25    26    1
   135    55    49   am
   136    26    27    1
   137    89    88    1
   138    88    87    1
   139    74    72   ar
   140    27    28    2
   141    52    51    1
   142    83    82    1
   143    49    50    2
   144    49    48    1
   145    73    72   ar
   146    51    48    1
   147    72    71    1
   148    48    47    1
   149    82    79    1
   150    79    78    1
   151    79    80    1
   152    81    80    2
   153    70    69    2
   154    78    69   am
   155    71    68    1
   156    69    68    1
   157    68    67    1
