@<TRIPOS>MOLECULE
tmp/2vp9G00.pdb
 166 156 0 0 0
SMALL
GASTEIGER

@<TRIPOS>ATOM
      1  N         39.8480   66.2150  175.3540 N.3    18  ILE18      -0.1245
      2  CA        39.4760   64.8300  175.5230 C.3    18  ILE18       0.1561
      3  C         38.9830   64.4430  174.1500 C.2    18  ILE18       0.2260
      4  O         38.2810   65.2170  173.4950 O.2    18  ILE18      -0.2867
      5  CB        38.3500   64.6670  176.5200 C.3    18  ILE18       0.0252
      6  CG1       38.6610   65.4400  177.8070 C.3    18  ILE18       0.0019
      7  CG2       38.0730   63.1790  176.7660 C.3    18  ILE18       0.0019
      8  CD1       37.4680   65.5730  178.7570 C.3    18  ILE18       0.0001
      9  N         44.9430   61.8070  171.0910 N.3    22  LYS22      -0.1245
     10  CA        46.2830   61.8370  171.6330 C.3    22  LYS22       0.1561
     11  C         46.8350   60.4300  171.8350 C.2    22  LYS22       0.2260
     12  O         47.9850   60.1610  171.4900 O.2    22  LYS22      -0.2867
     13  CB        46.3330   62.6150  172.9420 C.3    22  LYS22       0.0271
     14  CG        46.2580   64.1040  172.7800 C.3    22  LYS22       0.0035
     15  CD        46.2410   64.8320  174.1210 C.3    22  LYS22       0.0206
     16  CE        44.8860   64.8070  174.7950 C.3    22  LYS22       0.1093
     17  NZ        44.8070   63.6190  175.6450 N.3    22  LYS22      -0.1314
     18  N         49.6260   59.7910  179.5880 N.3    41  GLU41      -0.1245
     19  CA        48.9120   60.3730  180.7200 C.3    41  GLU41       0.1567
     20  C         48.7330   59.2880  181.7590 C.2    41  GLU41       0.2260
     21  O         48.3150   58.2010  181.4160 O.2    41  GLU41      -0.2867
     22  CB        47.5670   60.9060  180.2510 C.3    41  GLU41       0.0388
     23  CG        47.1750   62.2010  180.9070 C.3    41  GLU41       0.1160
     24  CD        45.7560   62.6170  180.5870 C.2    41  GLU41       0.3649
     25  OE1       44.9150   61.7320  180.3200 O.co2  41  GLU41      -0.2457
     26  OE2       45.4730   63.8280  180.6150 O.co2  41  GLU41      -0.2457
     27  N         46.7050   57.9940  183.7360 N.3    43  VAL43      -0.1245
     28  CA        45.3270   57.6940  184.0860 C.3    43  VAL43       0.1561
     29  C         45.2910   56.5210  185.0660 C.2    43  VAL43       0.2260
     30  O         44.5480   56.5530  186.0540 O.2    43  VAL43      -0.2867
     31  CB        44.4860   57.3730  182.8120 C.3    43  VAL43       0.0252
     32  CG1       43.0060   57.6320  183.0650 C.3    43  VAL43       0.0019
     33  CG2       44.9790   58.2130  181.5940 C.3    43  VAL43       0.0019
     34  N         45.6570   57.4540  188.5560 N.3    46  TRP46      -0.1241
     35  CA        44.4550   58.1300  189.0680 C.3    46  TRP46       0.1605
     36  C         43.3340   57.1540  189.3960 C.2    46  TRP46       0.2264
     37  O         42.4540   57.4410  190.2410 O.2    46  TRP46      -0.2867
     38  CB        43.9240   59.2110  188.1100 C.3    46  TRP46       0.0550
     39  CG        44.9550   60.1260  187.5460 C.ar   46  TRP46       0.0003
     40  CD1       46.1480   60.4550  188.0960 C.ar   46  TRP46       0.0946
     41  CD2       44.8520   60.8540  186.3350 C.ar   46  TRP46       0.0152
     42  NE1       46.8120   61.3180  187.2880 N.ar   46  TRP46      -0.2442
     43  CE2       46.0330   61.5870  186.1930 C.ar   46  TRP46       0.0810
     44  CE3       43.8750   60.9490  185.3380 C.ar   46  TRP46       0.0012
     45  CZ2       46.2750   62.4140  185.0770 C.ar   46  TRP46       0.0191
     46  CZ3       44.1190   61.7530  184.2300 C.ar   46  TRP46       0.0001
     47  CH2       45.3100   62.4770  184.1130 C.ar   46  TRP46       0.0015
     48  N         39.4780   59.2800  189.6110 N.3    55  LEU55      -0.1245
     49  CA        38.8640   59.6940  188.3520 C.3    55  LEU55       0.1561
     50  C         37.3460   59.5310  188.3960 C.2    55  LEU55       0.2260
     51  O         36.6140   60.4740  188.0960 O.2    55  LEU55      -0.2867
     52  CB        39.4760   58.9430  187.1700 C.3    55  LEU55       0.0270
     53  CG        39.1030   59.4050  185.7570 C.3    55  LEU55       0.0019
     54  CD1       39.1680   60.9240  185.5850 C.3    55  LEU55       0.0001
     55  CD2       39.9690   58.7090  184.6950 C.3    55  LEU55       0.0001
     56  N         35.5270   61.7210  190.8860 N.3    58  MET58      -0.1230
     57  CA        35.5260   63.0880  190.3840 C.3    58  MET58       0.1702
     58  C         34.3610   63.2890  189.4280 C.2    58  MET58       0.2592
     59  O         33.6730   64.3020  189.4960 O.2    58  MET58      -0.2718
     60  CB        36.8490   63.3980  189.7060 C.3    58  MET58       0.0401
     61  CG        36.9680   64.8180  189.2070 C.3    58  MET58       0.0596
     62  SD        36.3540   65.1260  187.5310 S.3    58  MET58      -0.1393
     63  CE        37.5250   64.2120  186.5000 C.3    58  MET58       0.0692
     64  N         34.1350   62.3110  188.5520 N.am   59  TYR59      -0.1976
     65  CA        33.0250   62.3770  187.5840 C.3    59  TYR59       0.1639
     66  C         31.6660   62.1390  188.2310 C.2    59  TYR59       0.2290
     67  O         30.6580   62.5720  187.7030 O.2    59  TYR59      -0.2864
     68  CB        33.2450   61.4250  186.3800 C.3    59  TYR59       0.0560
     69  CG        34.1090   62.0150  185.2740 C.ar   59  TYR59      -0.0198
     70  CD1       35.1760   61.2960  184.7260 C.ar   59  TYR59      -0.0009
     71  CD2       33.8540   63.3090  184.7790 C.ar   59  TYR59      -0.0009
     72  CE1       35.9670   61.8510  183.7070 C.ar   59  TYR59       0.0417
     73  CE2       34.6420   63.8720  183.7730 C.ar   59  TYR59       0.0417
     74  CZ        35.6940   63.1410  183.2380 C.ar   59  TYR59       0.1957
     75  OH        36.4740   63.6990  182.2470 O.3    59  TYR59      -0.2866
     76  N         41.1320   65.2530  193.3560 N.3    69  PHE69      -0.1227
     77  CA        41.5060   64.7220  192.0370 C.3    69  PHE69       0.1736
     78  C         42.5390   65.5780  191.3010 C.2    69  PHE69       0.2595
     79  O         43.5090   65.0650  190.7820 O.2    69  PHE69      -0.2718
     80  CB        40.2620   64.5120  191.1520 C.3    69  PHE69       0.0547
     81  CG        40.5900   64.1730  189.7250 C.ar   69  PHE69      -0.0202
     82  CD1       40.9360   62.8710  189.3700 C.ar   69  PHE69      -0.0042
     83  CD2       40.5940   65.1640  188.7440 C.ar   69  PHE69      -0.0042
     84  CE1       41.2560   62.5490  188.0680 C.ar   69  PHE69      -0.0003
     85  CE2       40.9130   64.8550  187.4380 C.ar   69  PHE69      -0.0003
     86  CZ        41.2350   63.5230  187.0940 C.ar   69  PHE69      -0.0000
     87  N         42.3240   66.8830  191.2440 N.am   70  GLN70      -0.1979
     88  CA        43.2310   67.7560  190.5130 C.3    70  GLN70       0.1601
     89  C         44.5660   67.9160  191.2370 C.2    70  GLN70       0.2287
     90  O         45.6390   67.9720  190.5930 O.2    70  GLN70      -0.2864
     91  CB        42.5850   69.1120  190.2490 C.3    70  GLN70       0.0394
     92  CG        41.4550   69.0360  189.2690 C.3    70  GLN70       0.0908
     93  CD        41.8980   68.6060  187.8670 C.2    70  GLN70       0.2608
     94  OE1       41.0830   68.1580  187.0590 O.2    70  GLN70      -0.2717
     95  NE2       43.1880   68.7420  187.5720 N.am   70  GLN70      -0.0878
     96  N         46.3310   64.8530  190.1540 N.3    73  VAL73      -0.1245
     97  CA        46.7740   64.9800  188.7770 C.3    73  VAL73       0.1561
     98  C         48.0410   65.8130  188.7860 C.2    73  VAL73       0.2260
     99  O         49.0990   65.3360  188.3870 O.2    73  VAL73      -0.2867
    100  CB        45.6750   65.6130  187.9000 C.3    73  VAL73       0.0252
    101  CG1       46.1700   65.9220  186.5240 C.3    73  VAL73       0.0019
    102  CG2       44.5400   64.6660  187.7850 C.3    73  VAL73       0.0019
    103  N         51.6180   64.5940  187.2740 N.3    77  MET77      -0.1245
    104  CA        52.2330   65.3310  186.1900 C.3    77  MET77       0.1570
    105  C         53.6320   65.7870  186.5480 C.2    77  MET77       0.2261
    106  O         54.5640   65.6420  185.7290 O.2    77  MET77      -0.2867
    107  CB        51.3730   66.4950  185.7260 C.3    77  MET77       0.0387
    108  CG        50.0880   66.0520  185.0460 C.3    77  MET77       0.0595
    109  SD        50.2290   64.5960  183.9750 S.3    77  MET77      -0.1393
    110  CE        48.5630   64.6110  183.3110 C.3    77  MET77       0.0692
    111  N         49.9290   65.5930  177.7030 N.3    94  ARG94      -0.1245
    112  CA        49.4120   66.6220  178.5920 C.3    94  ARG94       0.1563
    113  C         50.4810   67.0720  179.5600 C.2    94  ARG94       0.2260
    114  O         51.5790   66.5620  179.5250 O.2    94  ARG94      -0.2867
    115  CB        48.1690   66.1340  179.3260 C.3    94  ARG94       0.0307
    116  CG        46.9660   65.9460  178.4180 C.3    94  ARG94       0.0489
    117  CD        45.7490   66.4080  179.1360 C.3    94  ARG94       0.2205
    118  NE        44.5890   66.6160  178.2800 N.pl3  94  ARG94      -0.0865
    119  CZ        43.6400   65.7120  178.0840 C.cat  94  ARG94       0.5346
    120  NH1       43.7420   64.5070  178.6520 N.pl3  94  ARG94       0.1354
    121  NH2       42.6030   66.0090  177.3070 N.pl3  94  ARG94       0.1354
    122  N         46.5720   71.0820  183.0700 N.3    99  ALA99      -0.1245
    123  CA        45.8630   70.8730  184.3130 C.3    99  ALA99       0.1562
    124  C         45.4570   72.2130  184.8780 C.2    99  ALA99       0.2260
    125  O         44.3150   72.4180  185.2330 O.2    99  ALA99      -0.2867
    126  CB        46.7280   70.1230  185.2920 C.3    99  ALA99       0.0290
    127  N         41.7030   72.2810  182.6430 N.3   103  PHE103     -0.1241
    128  CA        40.8000   71.4690  183.4630 C.3   103  PHE103      0.1605
    129  C         40.4200   72.1190  184.8110 C.2   103  PHE103      0.2264
    130  O         39.2380   72.1470  185.1860 O.2   103  PHE103     -0.2867
    131  CB        41.3470   70.0460  183.6250 C.3   103  PHE103      0.0534
    132  CG        41.5180   69.3350  182.3220 C.ar  103  PHE103     -0.0203
    133  CD1       42.6880   69.4650  181.5870 C.ar  103  PHE103     -0.0042
    134  CD2       40.4700   68.6100  181.7720 C.ar  103  PHE103     -0.0042
    135  CE1       42.8190   68.8520  180.3480 C.ar  103  PHE103     -0.0003
    136  CE2       40.6030   67.9930  180.5380 C.ar  103  PHE103     -0.0003
    137  CZ        41.7910   68.1140  179.8330 C.ar  103  PHE103     -0.0000
    138  N         36.6630   73.5610  185.8820 N.3   107  MET107     -0.1245
    139  CA        35.9320   73.2040  187.0820 C.3   107  MET107      0.1570
    140  C         35.6270   74.3550  188.0050 C.2   107  MET107      0.2261
    141  O         34.6290   74.2950  188.7170 O.2   107  MET107     -0.2867
    142  CB        36.6800   72.1470  187.8370 C.3   107  MET107      0.0387
    143  CG        36.2900   70.7940  187.3830 C.3   107  MET107      0.0595
    144  SD        37.3860   69.6450  188.1540 S.3   107  MET107     -0.1393
    145  CE        36.3400   68.2250  188.1460 C.3   107  MET107      0.0692
    146  N         34.8510   58.1720  181.2970 N.3   161  GLU161     -0.1245
    147  CA        34.9130   59.5110  180.6350 C.3   161  GLU161      0.1567
    148  C         34.0700   59.7340  179.3400 C.2   161  GLU161      0.2260
    149  O         34.3010   60.7220  178.6300 O.2   161  GLU161     -0.2867
    150  CB        36.3700   60.0370  180.4750 C.3   161  GLU161      0.0388
    151  CG        37.3330   59.1550  179.6800 C.3   161  GLU161      0.1160
    152  CD        37.8970   59.8200  178.4210 C.2   161  GLU161      0.3649
    153  OE1       37.1320   60.0930  177.4690 O.co2 161  GLU161     -0.2457
    154  OE2       39.1280   60.0440  178.3680 O.co2 161  GLU161     -0.2457
    155  N         30.5080   70.6160  177.7180 N.3   168  TYR168     -0.1241
    156  CA        31.7370   70.4880  178.4840 C.3   168  TYR168      0.1605
    157  C         32.9390   70.4310  177.5540 C.2   168  TYR168      0.2264
    158  O         33.9280   71.1070  177.7660 O.2   168  TYR168     -0.2867
    159  CB        31.6230   69.2380  179.3620 C.3   168  TYR168      0.0534
    160  CG        32.7860   68.8910  180.2610 C.ar  168  TYR168     -0.0201
    161  CD1       33.0450   69.6050  181.4390 C.ar  168  TYR168     -0.0009
    162  CD2       33.5790   67.7900  179.9650 C.ar  168  TYR168     -0.0009
    163  CE1       34.1050   69.2480  182.2710 C.ar  168  TYR168      0.0417
    164  CE2       34.6270   67.4170  180.7850 C.ar  168  TYR168      0.0417
    165  CZ        34.8940   68.1350  181.9280 C.ar  168  TYR168      0.1957
    166  OH        35.9720   67.6880  182.6770 O.3   168  TYR168     -0.2866
@<TRIPOS>BOND
     1     9    10    1
     2    12    11    2
     3    10    11    1
     4    10    13    1
     5    14    13    1
     6    14    15    1
     7     4     3    2
     8    15    16    1
     9     3     2    1
    10    16    17    1
    11     1     2    1
    12     2     5    1
    13     5     7    1
    14     5     6    1
    15   121   119    1
    16   153   152   ar
    17   157   158    2
    18   157   156    1
    19   111   112    1
    20   155   156    1
    21     6     8    1
    22   119   118    2
    23   119   120    1
    24   118   117    1
    25   154   152   ar
    26   116   117    1
    27   116   115    1
    28   152   151    1
    29   156   159    1
    30   112   115    1
    31   112   113    1
    32   149   148    2
    33   148   147    1
    34   159   160    1
    35   114   113    2
    36    18    19    1
    37   151   150    1
    38   137   135   ar
    39   137   136   ar
    40   162   160   ar
    41   162   164   ar
    42    22    19    1
    43    22    23    1
    44   160   161   ar
    45    25    24   ar
    46   135   133   ar
    47   150   147    1
    48   136   134   ar
    49    24    26   ar
    50    24    23    1
    51   147   146    1
    52    19    20    1
    53   164   165   ar
    54    21    20    2
    55   161   163   ar
    56   133   132   ar
    57    33    31    1
    58   134   132   ar
    59   165   163   ar
    60   165   166    1
    61    75    74    1
    62   132   131    1
    63   127   128    1
    64    31    32    1
    65    31    28    1
    66   122   123    1
    67    74    72   ar
    68    74    73   ar
    69   110   109    1
    70   128   131    1
    71   128   129    1
    72    72    70   ar
    73    27    28    1
    74    73    71   ar
    75   109   108    1
    76    28    29    1
    77    47    46   ar
    78    47    45   ar
    79    46    44   ar
    80   123   124    1
    81   123   126    1
    82    55    53    1
    83    70    69   ar
    84    71    69   ar
    85   129   130    2
    86   124   125    2
    87   108   107    1
    88    29    30    2
    89    45    43   ar
    90    69    68    1
    91    44    41   ar
    92    54    53    1
    93   107   104    1
    94   106   105    2
    95    53    52    1
    96   138   139    1
    97   104   105    1
    98   104   103    1
    99    43    41   ar
   100    43    42   ar
   101    41    39   ar
   102    68    65    1
   103    63    62    1
   104   101   100    1
   105    94    93    2
   106   139   142    1
   107   139   140    1
   108    86    85   ar
   109    86    84   ar
   110    52    49    1
   111    42    40   ar
   112   143   142    1
   113   143   144    1
   114    85    83   ar
   115    62    61    1
   116    39    40   ar
   117    39    38    1
   118    95    93   am
   119    65    66    1
   120    65    64    1
   121    67    66    2
   122   102   100    1
   123    93    92    1
   124   100    97    1
   125   140   141    2
   126    84    82   ar
   127    51    50    2
   128    38    35    1
   129   145   144    1
   130    49    50    1
   131    49    48    1
   132    99    98    2
   133    64    58   am
   134    34    35    1
   135    83    81   ar
   136    97    98    1
   137    97    96    1
   138    35    36    1
   139    61    60    1
   140    92    91    1
   141    82    81   ar
   142    36    37    2
   143    58    59    2
   144    58    57    1
   145    60    57    1
   146    81    80    1
   147    91    88    1
   148    57    56    1
   149    88    89    1
   150    88    87    1
   151    90    89    2
   152    79    78    2
   153    80    77    1
   154    87    78   am
   155    78    77    1
   156    77    76    1
