@<TRIPOS>MOLECULE
tmp/2vpgC00.pdb
 127 124 0 0 0
SMALL
GASTEIGER

@<TRIPOS>ATOM
      1  N          4.6710   -5.7480    3.6330 N.3     6  TYR6       -0.1241
      2  CA         4.7560   -7.1860    3.8680 C.3     6  TYR6        0.1605
      3  C          3.5960   -7.6270    4.7710 C.2     6  TYR6        0.2264
      4  O          3.6990   -7.5440    5.9960 O.2     6  TYR6       -0.2867
      5  CB         6.0840   -7.5360    4.5400 C.3     6  TYR6        0.0534
      6  CG         7.3210   -6.9990    3.8500 C.ar    6  TYR6       -0.0201
      7  CD1        8.0120   -7.7800    2.9240 C.ar    6  TYR6       -0.0009
      8  CD2        7.8290   -5.7370    4.1620 C.ar    6  TYR6       -0.0009
      9  CE1        9.1520   -7.3060    2.2990 C.ar    6  TYR6        0.0417
     10  CE2        8.9870   -5.2540    3.5430 C.ar    6  TYR6        0.0417
     11  CZ         9.6330   -6.0450    2.6260 C.ar    6  TYR6        0.1957
     12  OH        10.7740   -5.5760    2.0110 O.3     6  TYR6       -0.2866
     13  N          3.4320   -6.1990    8.4640 N.3    15  VAL15      -0.1231
     14  CA         4.5500   -6.5150    9.3350 C.3    15  VAL15       0.1692
     15  C          5.5400   -5.3540    9.2370 C.2    15  VAL15       0.2592
     16  O          6.0870   -5.0840    8.1620 O.2    15  VAL15      -0.2718
     17  CB         5.2250   -7.8690    8.9680 C.3    15  VAL15       0.0266
     18  CG1        6.4790   -8.1170    9.8310 C.3    15  VAL15       0.0020
     19  CG2        4.2140   -9.0500    9.1020 C.3    15  VAL15       0.0020
     20  N          5.7230   -4.6540   10.3580 N.am   16  ASN16      -0.1960
     21  CA         6.6230   -3.5050   10.4210 C.3    16  ASN16       0.1819
     22  C          7.9200   -3.8460   11.1110 C.2    16  ASN16       0.2621
     23  O          8.0330   -4.8600   11.8040 O.2    16  ASN16      -0.2715
     24  CB         5.9450   -2.3440   11.1380 C.3    16  ASN16       0.1195
     25  CG         4.6590   -1.9110   10.4450 C.2    16  ASN16       0.2630
     26  OD1        3.6450   -1.6530   11.0980 O.2    16  ASN16      -0.2716
     27  ND2        4.6910   -1.8550    9.1160 N.am   16  ASN16      -0.0877
     28  N          8.9170   -2.9810   10.9340 N.am   17  ASP17      -0.1971
     29  CA        10.2410   -3.2790   11.4460 C.3    17  ASP17       0.1709
     30  C         10.3170   -3.2250   12.9710 C.2    17  ASP17       0.2293
     31  O         11.2180   -3.7900   13.5740 O.2    17  ASP17      -0.2864
     32  CB        11.2810   -2.3440   10.8140 C.3    17  ASP17       0.1436
     33  CG        11.4860   -2.6120    9.3260 C.2    17  ASP17       0.3671
     34  OD1       11.0610   -3.6790    8.8150 O.co2  17  ASP17      -0.2456
     35  OD2       12.0690   -1.7400    8.6560 O.co2  17  ASP17      -0.2456
     36  N          8.0850   -4.5470   14.9450 N.3    19  GLN19      -0.1231
     37  CA         7.3080   -5.6640   15.4820 C.3    19  GLN19       0.1698
     38  C          8.1310   -6.9420   15.4740 C.2    19  GLN19       0.2592
     39  O          8.9390   -7.1310   14.5720 O.2    19  GLN19      -0.2718
     40  CB         6.0680   -5.8850   14.6220 C.3    19  GLN19       0.0381
     41  CG         5.1220   -4.6920   14.5870 C.3    19  GLN19       0.0905
     42  CD         3.9410   -4.9210   13.6680 C.2    19  GLN19       0.2608
     43  OE1        4.0680   -5.5120   12.5990 O.2    19  GLN19      -0.2717
     44  NE2        2.7790   -4.4290   14.0810 N.am   19  GLN19      -0.0878
     45  N          7.9130   -7.8180   16.4600 N.am   20  ASP20      -0.1960
     46  CA         8.5480   -9.1370   16.4470 C.3    20  ASP20       0.1840
     47  C          7.9410   -9.8830   15.2690 C.2    20  ASP20       0.2622
     48  O          6.7170  -10.0550   15.2070 O.2    20  ASP20      -0.2715
     49  CB         8.2860   -9.9350   17.7280 C.3    20  ASP20       0.1450
     50  CG         9.0850   -9.4490   18.9530 C.2    20  ASP20       0.3671
     51  OD1        9.9720   -8.5600   18.8470 O.co2  20  ASP20      -0.2456
     52  OD2        8.8070  -10.0130   20.0320 O.co2  20  ASP20      -0.2456
     53  N          8.7700  -10.3030   14.3200 N.am   21  ALA21      -0.1963
     54  CA         8.2680  -11.0140   13.1480 C.3    21  ALA21       0.1728
     55  C          9.3900  -11.8240   12.5260 C.2    21  ALA21       0.2616
     56  O         10.5820  -11.4980   12.6520 O.2    21  ALA21      -0.2715
     57  CB         7.6690  -10.0510   12.1160 C.3    21  ALA21       0.0334
     58  N          8.9780  -12.8900   11.8680 N.am   22  ILE22      -0.1963
     59  CA         9.9230  -13.8290   11.2830 C.3    22  ILE22       0.1727
     60  C          9.5620  -14.1700    9.8300 C.2    22  ILE22       0.2616
     61  O          8.3960  -14.2000    9.4340 O.2    22  ILE22      -0.2715
     62  CB        10.0520  -15.0760   12.1820 C.3    22  ILE22       0.0290
     63  CG1       11.1530  -16.0180   11.6810 C.3    22  ILE22       0.0022
     64  CG2        8.7200  -15.8050   12.3220 C.3    22  ILE22       0.0023
     65  CD1       11.7650  -16.8770   12.8120 C.3    22  ILE22       0.0001
     66  N         10.5990  -14.4220    9.0410 N.am   23  LEU23      -0.1977
     67  CA        10.4590  -14.7330    7.6330 C.3    23  LEU23       0.1596
     68  C         10.4120  -16.2350    7.4440 C.2    23  LEU23       0.2287
     69  O         11.2490  -16.9590    8.0080 O.2    23  LEU23      -0.2864
     70  CB        11.6540  -14.1490    6.8850 C.3    23  LEU23       0.0297
     71  CG        11.7260  -14.3800    5.3810 C.3    23  LEU23       0.0022
     72  CD1       10.5670  -13.6930    4.6440 C.3    23  LEU23       0.0001
     73  CD2       13.0440  -13.8300    4.8990 C.3    23  LEU23       0.0001
     74  N         11.5760  -18.7190    5.6930 N.3    25  GLU25      -0.1245
     75  CA        12.7000  -19.0350    4.8070 C.3    25  GLU25       0.1567
     76  C         12.6640  -20.5050    4.3760 C.2    25  GLU25       0.2260
     77  O         13.4110  -20.9130    3.4820 O.2    25  GLU25      -0.2867
     78  CB        14.0290  -18.7250    5.4980 C.3    25  GLU25       0.0388
     79  CG        14.3260  -17.2540    5.6600 C.3    25  GLU25       0.1160
     80  CD        15.6140  -16.9910    6.3980 C.2    25  GLU25       0.3649
     81  OE1       16.5730  -16.5170    5.7510 O.co2  25  GLU25      -0.2457
     82  OE2       15.6760  -17.2430    7.6210 O.co2  25  GLU25      -0.2457
     83  N          6.4990  -12.7620    5.5160 N.3    31  TRP31      -0.1241
     84  CA         6.7240  -12.3850    6.9000 C.3    31  TRP31       0.1605
     85  C          5.5250  -12.7560    7.7800 C.2    31  TRP31       0.2264
     86  O          4.3650  -12.7070    7.3390 O.2    31  TRP31      -0.2867
     87  CB         7.0600  -10.8940    6.9930 C.3    31  TRP31       0.0550
     88  CG         8.4830  -10.6060    6.5650 C.ar   31  TRP31       0.0003
     89  CD1        8.9260  -10.2720    5.3030 C.ar   31  TRP31       0.0946
     90  CD2        9.6460  -10.6490    7.3940 C.ar   31  TRP31       0.0152
     91  NE1       10.2930  -10.0900    5.3080 N.ar   31  TRP31      -0.2442
     92  CE2       10.7590  -10.3070    6.5790 C.ar   31  TRP31       0.0810
     93  CE3        9.8580  -10.9180    8.7510 C.ar   31  TRP31       0.0012
     94  CZ2       12.0700  -10.2450    7.0890 C.ar   31  TRP31       0.0191
     95  CZ3       11.1560  -10.8500    9.2600 C.ar   31  TRP31       0.0001
     96  CH2       12.2430  -10.5100    8.4260 C.ar   31  TRP31       0.0015
     97  N         11.8090  -16.9570   19.6340 N.3    44  TYR44      -0.1227
     98  CA        12.0990  -15.8930   18.6800 C.3    44  TYR44       0.1736
     99  C         13.5690  -15.4110   18.7930 C.2    44  TYR44       0.2596
    100  O         14.2740  -15.3210   17.7850 O.2    44  TYR44      -0.2718
    101  CB        11.0850  -14.7530   18.8690 C.3    44  TYR44       0.0548
    102  CG        11.2680  -13.5750   17.9490 C.ar   44  TYR44      -0.0200
    103  CD1       10.8470  -13.6300   16.6110 C.ar   44  TYR44      -0.0009
    104  CD2       11.8420  -12.3800   18.4250 C.ar   44  TYR44      -0.0009
    105  CE1       10.9990  -12.5090   15.7610 C.ar   44  TYR44       0.0417
    106  CE2       12.0000  -11.2810   17.5980 C.ar   44  TYR44       0.0417
    107  CZ        11.5800  -11.3470   16.2750 C.ar   44  TYR44       0.1957
    108  OH        11.7330  -10.2450   15.4630 O.3    44  TYR44      -0.2866
    109  N         14.0350  -15.1320   20.0120 N.am   45  GLY45      -0.1957
    110  CA        15.4200  -14.7070   20.2240 C.3    45  GLY45       0.1869
    111  C         16.4280  -15.7800   19.8270 C.2    45  GLY45       0.2309
    112  O         17.4760  -15.4830   19.2530 O.2    45  GLY45      -0.2863
    113  N         15.9670  -18.3030   17.5890 N.3    47  LEU47      -0.1231
    114  CA        16.0240  -18.4280   16.1250 C.3    47  LEU47       0.1693
    115  C         16.8270  -17.3100   15.5040 C.2    47  LEU47       0.2592
    116  O         17.6420  -17.5450   14.5870 O.2    47  LEU47      -0.2718
    117  CB        14.6410  -18.5160   15.4830 C.3    47  LEU47       0.0284
    118  CG        13.8500  -19.8090   15.6880 C.3    47  LEU47       0.0019
    119  CD1       12.4850  -19.6900   15.0560 C.3    47  LEU47       0.0001
    120  CD2       14.5650  -21.0500   15.1150 C.3    47  LEU47       0.0001
    121  N         16.6190  -16.0970   16.0030 N.am   48  THR48      -0.1953
    122  CA        17.3810  -14.9430   15.5570 C.3    48  THR48       0.1897
    123  C         18.8840  -15.2170   15.6630 C.2    48  THR48       0.2313
    124  O         19.6250  -14.9310   14.7280 O.2    48  THR48      -0.2863
    125  CB        16.9930  -13.6670   16.3480 C.3    48  THR48       0.1794
    126  OG1       15.5940  -13.4020   16.1440 O.3    48  THR48      -0.2208
    127  CG2       17.8020  -12.4730   15.8830 C.3    48  THR48       0.0378
@<TRIPOS>BOND
     1    12    11    1
     2     9    11   ar
     3     9     7   ar
     4    11    10   ar
     5     7     6   ar
     6    77    76    2
     7    10     8   ar
     8     1     2    1
     9     6     8   ar
    10     6     5    1
    11     2     5    1
    12     2     3    1
    13    76    75    1
    14    72    71    1
    15     3     4    2
    16    75    78    1
    17    75    74    1
    18    73    71    1
    19    89    91   ar
    20    89    88   ar
    21    91    92   ar
    22    71    70    1
    23    78    79    1
    24    83    84    1
    25    79    80    1
    26    81    80   ar
    27    80    82   ar
    28    88    87    1
    29    88    90   ar
    30    92    94   ar
    31    92    90   ar
    32    70    67    1
    33    84    87    1
    34    84    85    1
    35    94    96   ar
    36    86    85    2
    37    90    93   ar
    38    68    67    1
    39    68    69    2
    40    67    66    1
    41    16    15    2
    42    96    95   ar
    43    13    14    1
    44    35    33   ar
    45    93    95   ar
    46    34    33   ar
    47    17    19    1
    48    17    14    1
    49    17    18    1
    50    66    60   am
    51    27    25   am
    52    15    14    1
    53    15    20   am
    54    33    32    1
    55    61    60    2
    56    60    59    1
    57    20    21    1
    58    21    22    1
    59    21    24    1
    60    25    26    2
    61    25    24    1
    62    32    29    1
    63    28    22   am
    64    28    29    1
    65    22    23    2
    66    59    58    1
    67    59    62    1
    68    29    30    1
    69    63    62    1
    70    63    65    1
    71    58    55   am
    72    57    54    1
    73    62    64    1
    74    55    56    2
    75    55    54    1
    76    43    42    2
    77    30    31    2
    78    54    53    1
    79    42    44   am
    80    42    41    1
    81    53    47   am
    82    39    38    2
    83   116   115    2
    84    41    40    1
    85    40    37    1
    86   124   123    2
    87    36    37    1
    88   119   118    1
    89   120   118    1
    90    48    47    2
    91    47    46    1
    92   108   107    1
    93    38    37    1
    94    38    45   am
    95   117   118    1
    96   117   114    1
    97   115   121   am
    98   115   114    1
    99   122   123    1
   100   122   121    1
   101   122   125    1
   102   105   107   ar
   103   105   103   ar
   104   127   125    1
   105   114   113    1
   106   126   125    1
   107   107   106   ar
   108    46    45    1
   109    46    49    1
   110   103   102   ar
   111   106   104   ar
   112    49    50    1
   113   100    99    2
   114   102   104   ar
   115   102   101    1
   116    98    99    1
   117    98   101    1
   118    98    97    1
   119    99   109   am
   120    51    50   ar
   121    50    52   ar
   122   112   111    2
   123   111   110    1
   124   109   110    1
