@<TRIPOS>MOLECULE
tmp/2vpoB00.pdb
 148 146 0 0 0
SMALL
GASTEIGER

@<TRIPOS>ATOM
      1  N         48.4290   39.9230    3.5240 N.3     8  GLU8       -0.1231
      2  CA        47.3100   40.6730    4.0790 C.3     8  GLU8        0.1699
      3  C         46.0410   40.4850    3.2960 C.2     8  GLU8        0.2592
      4  O         45.0170   41.0070    3.6780 O.2     8  GLU8       -0.2718
      5  CB        47.6210   42.2000    4.1190 C.3     8  GLU8        0.0402
      6  CG        48.7850   42.6340    5.0340 C.3     8  GLU8        0.1161
      7  CD        49.1590   44.1090    4.8480 C.2     8  GLU8        0.3649
      8  OE1       48.9330   44.6710    3.7570 O.co2   8  GLU8       -0.2457
      9  OE2       49.6640   44.7200    5.8070 O.co2   8  GLU8       -0.2457
     10  N         46.1270   39.7530    2.1920 N.am    9  GLU9       -0.1979
     11  CA        45.0240   39.7220    1.2060 C.3     9  GLU9        0.1602
     12  C         44.5130   38.3220    0.9100 C.2     9  GLU9        0.2287
     13  O         44.9580   37.3450    1.4480 O.2     9  GLU9       -0.2864
     14  CB        45.4420   40.4290   -0.0890 C.3     9  GLU9        0.0415
     15  CG        45.9890   41.8910    0.1920 C.3     9  GLU9        0.1163
     16  CD        46.2710   42.7490   -1.0630 C.2     9  GLU9        0.3649
     17  OE1       46.3510   42.2000   -2.1810 O.co2   9  GLU9       -0.2457
     18  OE2       46.4350   43.9920   -0.9110 O.co2   9  GLU9       -0.2457
     19  N         45.1060   36.0410    4.1520 N.3    39  PHE39      -0.1241
     20  CA        44.4880   36.9110    5.1550 C.3    39  PHE39       0.1605
     21  C         43.6930   36.1050    6.1530 C.2    39  PHE39       0.2264
     22  O         42.8980   35.2550    5.7960 O.2    39  PHE39      -0.2867
     23  CB        43.5730   37.9600    4.5140 C.3    39  PHE39       0.0534
     24  CG        42.7330   38.7080    5.5140 C.ar   39  PHE39      -0.0203
     25  CD1       43.2690   39.7760    6.2130 C.ar   39  PHE39      -0.0042
     26  CD2       41.4300   38.3100    5.7880 C.ar   39  PHE39      -0.0042
     27  CE1       42.5110   40.4600    7.1580 C.ar   39  PHE39      -0.0003
     28  CE2       40.6760   38.9870    6.7140 C.ar   39  PHE39      -0.0003
     29  CZ        41.2300   40.0570    7.4110 C.ar   39  PHE39      -0.0000
     30  N         47.1580   42.0070    9.9580 N.3    45  SER45      -0.1217
     31  CA        48.4540   42.5180    9.5550 C.3    45  SER45       0.1889
     32  C         49.4020   42.6350   10.7260 C.2    45  SER45       0.2288
     33  O         50.5880   42.3440   10.6170 O.2    45  SER45      -0.2866
     34  CB        48.3560   43.8610    8.8510 C.3    45  SER45       0.2089
     35  OG        49.6690   44.3200    8.5580 O.3    45  SER45      -0.2183
     36  N         50.1470   49.9540    7.8770 N.3    66  PHE66      -0.1241
     37  CA        50.2750   49.2960    9.1870 C.3    66  PHE66       0.1605
     38  C         51.6650   49.4490    9.7940 C.2    66  PHE66       0.2264
     39  O         51.8150   49.6700   10.9910 O.2    66  PHE66      -0.2867
     40  CB        49.9040   47.8200    9.0810 C.3    66  PHE66       0.0534
     41  CG        48.4600   47.6000    8.7370 C.ar   66  PHE66      -0.0203
     42  CD1       47.4940   47.7340    9.6900 C.ar   66  PHE66      -0.0042
     43  CD2       48.0820   47.2670    7.4510 C.ar   66  PHE66      -0.0042
     44  CE1       46.1410   47.5570    9.3720 C.ar   66  PHE66      -0.0003
     45  CE2       46.7550   47.0810    7.1240 C.ar   66  PHE66      -0.0003
     46  CZ        45.7860   47.2310    8.0800 C.ar   66  PHE66      -0.0000
     47  N         50.2660   48.7610   -5.4870 N.3   121  GLU121     -0.1245
     48  CA        49.0950   47.8910   -5.7370 C.3   121  GLU121      0.1567
     49  C         48.0610   48.5480   -6.6260 C.2   121  GLU121      0.2260
     50  O         47.4270   47.9130   -7.4910 O.2   121  GLU121     -0.2867
     51  CB        48.4500   47.4660   -4.4100 C.3   121  GLU121      0.0388
     52  CG        49.3420   46.5600   -3.5570 C.3   121  GLU121      0.1160
     53  CD        48.5810   45.7410   -2.5140 C.2   121  GLU121      0.3649
     54  OE1       47.4240   45.3270   -2.7820 O.co2 121  GLU121     -0.2457
     55  OE2       49.1510   45.5330   -1.4110 O.co2 121  GLU121     -0.2457
     56  N         37.1590   55.3610    7.6200 N.3   144  ARG144     -0.1245
     57  CA        38.1000   54.3530    8.0940 C.3   144  ARG144      0.1563
     58  C         39.4530   54.5250    7.4450 C.2   144  ARG144      0.2260
     59  O         39.5660   54.7520    6.2410 O.2   144  ARG144     -0.2867
     60  CB        37.6000   52.9300    7.8460 C.3   144  ARG144      0.0307
     61  CG        38.5660   51.8540    8.3120 C.3   144  ARG144      0.0489
     62  CD        39.5630   51.5090    7.2760 C.3   144  ARG144      0.2205
     63  NE        40.4930   50.4810    7.7210 N.pl3 144  ARG144     -0.0865
     64  CZ        41.2920   49.7830    6.9130 C.cat 144  ARG144      0.5346
     65  NH1       41.2360   49.9490    5.6030 N.pl3 144  ARG144      0.1354
     66  NH2       42.1050   48.8750    7.4130 N.pl3 144  ARG144      0.1354
     67  N         43.6440   52.7930    7.7180 N.3   146  MET146     -0.1245
     68  CA        44.6580   51.8790    8.2770 C.3   146  MET146      0.1570
     69  C         45.2180   52.5250    9.5250 C.2   146  MET146      0.2261
     70  O         45.0150   53.6990    9.7980 O.2   146  MET146     -0.2867
     71  CB        45.7600   51.5490    7.2770 C.3   146  MET146      0.0387
     72  CG        45.2840   50.5710    6.1940 C.3   146  MET146      0.0595
     73  SD        46.5350   50.1630    4.9550 S.3   146  MET146     -0.1393
     74  CE        46.5450   51.7200    4.0560 C.3   146  MET146      0.0692
     75  N         41.4630   45.6940    9.0220 N.3   167  TRP167     -0.1241
     76  CA        40.6730   45.4360    7.8190 C.3   167  TRP167      0.1605
     77  C         39.4290   44.6090    8.1430 C.2   167  TRP167      0.2264
     78  O         38.3530   44.7460    7.5440 O.2   167  TRP167     -0.2867
     79  CB        41.4740   44.6950    6.7310 C.3   167  TRP167      0.0550
     80  CG        40.5130   44.3130    5.7190 C.ar  167  TRP167      0.0003
     81  CD1       40.0610   43.0570    5.4200 C.ar  167  TRP167      0.0946
     82  CD2       39.7360   45.2190    4.9510 C.ar  167  TRP167      0.0152
     83  NE1       39.0670   43.1350    4.4700 N.ar  167  TRP167     -0.2442
     84  CE2       38.8570   44.4520    4.1590 C.ar  167  TRP167      0.0810
     85  CE3       39.7340   46.6120    4.8130 C.ar  167  TRP167      0.0012
     86  CZ2       37.9750   45.0320    3.2610 C.ar  167  TRP167      0.0191
     87  CZ3       38.8430   47.1830    3.9260 C.ar  167  TRP167      0.0001
     88  CH2       37.9900   46.3900    3.1560 C.ar  167  TRP167      0.0015
     89  N         38.9190   54.0690    2.1760 N.3   183  GLU183     -0.1231
     90  CA        39.8020   54.3040    1.0280 C.3   183  GLU183      0.1699
     91  C         40.6520   53.0710    0.7390 C.2   183  GLU183      0.2592
     92  O         41.2590   52.4760    1.6160 O.2   183  GLU183     -0.2718
     93  CB        40.7070   55.5080    1.2950 C.3   183  GLU183      0.0402
     94  CG        41.7660   55.1980    2.3760 C.3   183  GLU183      0.1161
     95  CD        43.0290   56.0800    2.3220 C.2   183  GLU183      0.3649
     96  OE1       43.0100   57.1970    1.7320 O.co2 183  GLU183     -0.2457
     97  OE2       44.0510   55.6440    2.8980 O.co2 183  GLU183     -0.2457
     98  N         40.6850   52.6960   -0.5290 N.am  184  ASN184     -0.1961
     99  CA        41.4080   51.5170   -0.9780 C.3   184  ASN184      0.1804
    100  C         41.5230   51.4830   -2.5100 C.2   184  ASN184      0.2463
    101  O         40.8210   52.2410   -3.2000 O.2   184  ASN184     -0.2730
    102  CB        40.7180   50.2320   -0.4830 C.3   184  ASN184      0.1195
    103  CG        41.4280   49.6130    0.7290 C.2   184  ASN184      0.2630
    104  OD1       42.6420   49.4420    0.7200 O.2   184  ASN184     -0.2716
    105  ND2       40.6660   49.2810    1.7700 N.am  184  ASN184     -0.0877
    106  N         42.3870   50.6170   -3.0350 N.am  185  PRO185     -0.2727
    107  CA        42.3680   50.5110   -4.4840 C.3   185  PRO185      0.1402
    108  C         41.1480   49.7520   -4.9910 C.2   185  PRO185      0.2269
    109  O         40.5160   48.9800   -4.2620 O.2   185  PRO185     -0.2865
    110  CB        43.6600   49.7870   -4.8160 C.3   185  PRO185      0.0296
    111  CG        44.1040   49.1330   -3.5510 C.3   185  PRO185      0.0237
    112  CD        43.5160   49.8900   -2.4260 C.3   185  PRO185      0.0939
    113  N         40.7910   47.3760   -7.0190 N.3   187  PHE187     -0.1227
    114  CA        40.8200   45.9070   -7.1980 C.3   187  PHE187      0.1736
    115  C         40.3150   45.3100   -5.9080 C.2   187  PHE187      0.2595
    116  O         39.6680   44.2700   -5.8780 O.2   187  PHE187     -0.2718
    117  CB        42.2230   45.3680   -7.5530 C.3   187  PHE187      0.0547
    118  CG        43.0770   45.0870   -6.3560 C.ar  187  PHE187     -0.0202
    119  CD1       42.9140   43.9080   -5.6530 C.ar  187  PHE187     -0.0042
    120  CD2       44.0200   46.0080   -5.9240 C.ar  187  PHE187     -0.0042
    121  CE1       43.6670   43.6370   -4.5540 C.ar  187  PHE187     -0.0003
    122  CE2       44.7760   45.7480   -4.8040 C.ar  187  PHE187     -0.0003
    123  CZ        44.5800   44.5420   -4.1150 C.ar  187  PHE187     -0.0000
    124  N         40.6160   46.0110   -4.8150 N.am  188  TRP188     -0.1976
    125  CA        40.2960   45.5030   -3.4540 C.3   188  TRP188      0.1640
    126  C         38.8320   45.7720   -3.1260 C.2   188  TRP188      0.2290
    127  O         38.1510   44.9690   -2.4910 O.2   188  TRP188     -0.2864
    128  CB        41.2290   46.1380   -2.4170 C.3   188  TRP188      0.0576
    129  CG        41.0300   45.7580   -1.0300 C.ar  188  TRP188      0.0006
    130  CD1       40.3760   46.4760   -0.0850 C.ar  188  TRP188      0.0946
    131  CD2       41.5830   44.6150   -0.3580 C.ar  188  TRP188      0.0152
    132  NE1       40.4380   45.8340    1.1180 N.ar  188  TRP188     -0.2442
    133  CE2       41.1840   44.6930    0.9820 C.ar  188  TRP188      0.0810
    134  CE3       42.3450   43.5220   -0.7700 C.ar  188  TRP188      0.0012
    135  CZ2       41.5180   43.7190    1.9170 C.ar  188  TRP188      0.0191
    136  CZ3       42.6890   42.5520    0.1730 C.ar  188  TRP188      0.0001
    137  CH2       42.2610   42.6510    1.4870 C.ar  188  TRP188      0.0015
    138  N         48.0930   53.0400   -3.0080 N.3   209  PHE209     -0.1241
    139  CA        48.2350   51.9690   -2.0200 C.3   209  PHE209      0.1605
    140  C         49.5130   51.1940   -2.3650 C.2   209  PHE209      0.2264
    141  O         49.6570   50.6080   -3.4480 O.2   209  PHE209     -0.2867
    142  CB        47.0430   51.0240   -2.0040 C.3   209  PHE209      0.0534
    143  CG        47.0740   50.0850   -0.8440 C.ar  209  PHE209     -0.0203
    144  CD1       46.2260   50.2610    0.2310 C.ar  209  PHE209     -0.0042
    145  CD2       47.9980   49.0510   -0.7980 C.ar  209  PHE209     -0.0042
    146  CE1       46.2650   49.3760    1.3240 C.ar  209  PHE209     -0.0003
    147  CE2       48.0530   48.1950    0.3040 C.ar  209  PHE209     -0.0003
    148  CZ        47.1730   48.3560    1.3480 C.ar  209  PHE209     -0.0000
@<TRIPOS>BOND
     1   117   114    1
     2   117   118    1
     3    50    49    2
     4   114   113    1
     5   114   115    1
     6    49    48    1
     7   118   120   ar
     8   118   119   ar
     9   120   122   ar
    10   115   116    2
    11   115   124   am
    12    48    47    1
    13    48    51    1
    14   119   121   ar
    15   108   107    1
    16   108   109    2
    17   110   107    1
    18   110   111    1
    19   124   125    1
    20   122   123   ar
    21   121   123   ar
    22   107   106    1
    23    51    52    1
    24    52    53    1
    25   111   112    1
    26   125   126    1
    27   125   128    1
    28   141   140    2
    29   101   100    2
    30   126   127    2
    31   106   100   am
    32   106   112    1
    33   138   139    1
    34    54    53   ar
    35    53    55   ar
    36   100    99    1
    37   128   129    1
    38   140   139    1
    39    17    16   ar
    40   139   142    1
    41   142   143    1
    42    16    18   ar
    43    16    15    1
    44   129   131   ar
    45   129   130   ar
    46    99    98    1
    47    99   102    1
    48   143   145   ar
    49   143   144   ar
    50   145   147   ar
    51   134   131   ar
    52   134   136   ar
    53    98    91   am
    54   102   103    1
    55   131   133   ar
    56    14    15    1
    57    14    11    1
    58   130   132   ar
    59   136   137   ar
    60   144   146   ar
    61   147   148   ar
    62   104   103    2
    63   103   105   am
    64    91    90    1
    65    91    92    2
    66    12    11    1
    67    12    13    2
    68   133   132   ar
    69   133   135   ar
    70    90    93    1
    71    90    89    1
    72    11    10    1
    73    93    94    1
    74   146   148   ar
    75   137   135   ar
    76    96    95   ar
    77    10     3   am
    78    95    94    1
    79    95    97   ar
    80    88    86   ar
    81    88    87   ar
    82    86    84   ar
    83     3     4    2
    84     3     2    1
    85     1     2    1
    86     8     7   ar
    87    87    85   ar
    88    74    73    1
    89     2     5    1
    90     5     6    1
    91    19    20    1
    92    84    83   ar
    93    84    82   ar
    94    83    81   ar
    95    23    20    1
    96    23    24    1
    97    85    82   ar
    98     7     6    1
    99     7     9   ar
   100    82    80   ar
   101    73    72    1
   102    20    21    1
   103    81    80   ar
   104    24    26   ar
   105    24    25   ar
   106    65    64    1
   107    80    79    1
   108    26    28   ar
   109    22    21    2
   110    72    71    1
   111    25    27   ar
   112    59    58    2
   113    28    29   ar
   114    79    76    1
   115    64    66    1
   116    64    63    2
   117    45    43   ar
   118    45    46   ar
   119    27    29   ar
   120    62    63    1
   121    62    61    1
   122    71    68    1
   123    58    57    1
   124    43    41   ar
   125    78    77    2
   126    56    57    1
   127    67    68    1
   128    76    77    1
   129    76    75    1
   130    60    57    1
   131    60    61    1
   132    36    37    1
   133    46    44   ar
   134    68    69    1
   135    35    34    1
   136    41    40    1
   137    41    42   ar
   138    34    31    1
   139    40    37    1
   140    37    38    1
   141    44    42   ar
   142    69    70    2
   143    31    30    1
   144    31    32    1
   145    38    39    2
   146    33    32    2
