@<TRIPOS>MOLECULE
tmp/2vppA00.pdb
 175 165 0 0 0
SMALL
GASTEIGER

@<TRIPOS>ATOM
      1  N         52.8140   16.2900   10.1280 N.3    12  ILE12      -0.1245
      2  CA        52.8090   17.6340    9.5550 C.3    12  ILE12       0.1561
      3  C         51.3330   17.8900    9.2170 C.2    12  ILE12       0.2260
      4  O         50.6840   17.0290    8.6310 O.2    12  ILE12      -0.2867
      5  CB        53.6860   17.7140    8.2320 C.3    12  ILE12       0.0252
      6  CG1       55.0280   16.9510    8.3850 C.3    12  ILE12       0.0019
      7  CG2       53.9030   19.1420    7.7960 C.3    12  ILE12       0.0019
      8  CD1       55.7030   16.5560    7.0590 C.3    12  ILE12       0.0001
      9  N         48.9320   21.0680   15.3060 N.3    16  LYS16      -0.1245
     10  CA        49.7230   21.3110   16.5070 C.3    16  LYS16       0.1561
     11  C         49.8960   22.7970   16.8860 C.2    16  LYS16       0.2260
     12  O         49.7470   23.1650   18.0360 O.2    16  LYS16      -0.2867
     13  CB        51.0890   20.6210   16.3970 C.3    16  LYS16       0.0271
     14  CG        51.0290   19.0790   16.3450 C.3    16  LYS16       0.0035
     15  CD        52.4050   18.4430   16.5410 C.3    16  LYS16       0.0206
     16  CE        53.4410   18.9480   15.5630 C.3    16  LYS16       0.1093
     17  NZ        52.9600   18.9600   14.1980 N.3    16  LYS16      -0.1314
     18  N         57.9020   24.1790   18.5310 N.3    35  GLU35      -0.1245
     19  CA        58.9600   23.4490   17.8430 C.3    35  GLU35       0.1567
     20  C         59.9620   24.5090   17.3670 C.2    35  GLU35       0.2260
     21  O         59.5520   25.5740   16.9050 O.2    35  GLU35      -0.2867
     22  CB        58.3830   22.6510   16.6750 C.3    35  GLU35       0.0388
     23  CG        59.2070   21.4570   16.2080 C.3    35  GLU35       0.1160
     24  CD        58.6200   20.7460   14.9900 C.2    35  GLU35       0.3649
     25  OE1       57.8730   21.3820   14.1950 O.co2  35  GLU35      -0.2457
     26  OE2       58.9160   19.5380   14.8260 O.co2  35  GLU35      -0.2457
     27  N         61.4970   25.6780   14.9820 N.3    37  VAL37      -0.1245
     28  CA        61.5930   25.9050   13.5230 C.3    37  VAL37       0.1561
     29  C         62.4330   27.1470   13.1870 C.2    37  VAL37       0.2260
     30  O         63.1920   27.1450   12.2140 O.2    37  VAL37      -0.2867
     31  CB        60.1900   25.9990   12.8410 C.3    37  VAL37       0.0252
     32  CG1       60.3450   26.2380   11.3420 C.3    37  VAL37       0.0019
     33  CG2       59.4150   24.7320   13.0520 C.3    37  VAL37       0.0019
     34  N         66.0730   26.2550   13.0750 N.3    40  TRP40      -0.1241
     35  CA        66.4330   25.4230   11.9130 C.3    40  TRP40       0.1605
     36  C         66.5240   26.2560   10.6240 C.2    40  TRP40       0.2264
     37  O         67.3070   25.9440    9.7160 O.2    40  TRP40      -0.2867
     38  CB        65.4150   24.2940   11.7040 C.3    40  TRP40       0.0550
     39  CG        65.1020   23.4680   12.9100 C.ar   40  TRP40       0.0003
     40  CD1       65.8660   23.3220   14.0380 C.ar   40  TRP40       0.0946
     41  CD2       63.9540   22.6290   13.0910 C.ar   40  TRP40       0.0152
     42  NE1       65.2380   22.4860   14.9310 N.ar   40  TRP40      -0.2442
     43  CE2       64.0640   22.0420   14.3780 C.ar   40  TRP40       0.0810
     44  CE3       62.8150   22.3550   12.3130 C.ar   40  TRP40       0.0012
     45  CZ2       63.0960   21.1650   14.8940 C.ar   40  TRP40       0.0191
     46  CZ3       61.8620   21.4830   12.8180 C.ar   40  TRP40       0.0001
     47  CH2       62.0110   20.8900   14.1030 C.ar   40  TRP40       0.0015
     48  N         66.3130   23.6920    7.1580 N.3    49  LEU49      -0.1245
     49  CA        65.0250   23.0980    6.8870 C.3    49  LEU49       0.1561
     50  C         64.7530   23.0950    5.3880 C.2    49  LEU49       0.2260
     51  O         64.3720   22.0530    4.8310 O.2    49  LEU49      -0.2867
     52  CB        63.9230   23.8170    7.6760 C.3    49  LEU49       0.0270
     53  CG        62.4910   23.3470    7.4290 C.3    49  LEU49       0.0019
     54  CD1       62.3350   21.8590    7.7770 C.3    49  LEU49       0.0001
     55  CD2       61.5440   24.2070    8.2290 C.3    49  LEU49       0.0001
     56  N         67.1720   20.7080    3.5400 N.3    52  MET52      -0.1230
     57  CA        66.6870   19.3360    3.7130 C.3    52  MET52       0.1702
     58  C         65.5400   19.0050    2.7640 C.2    52  MET52       0.2592
     59  O         65.5720   17.9620    2.1230 O.2    52  MET52      -0.2718
     60  CB        66.2810   19.0440    5.1630 C.3    52  MET52       0.0401
     61  CG        65.7540   17.6140    5.3970 C.3    52  MET52       0.0596
     62  SD        64.0040   17.3400    4.9570 S.3    52  MET52      -0.1393
     63  CE        63.1490   18.1770    6.2780 C.3    52  MET52       0.0692
     64  N         64.5380   19.8780    2.6690 N.am   53  TYR53      -0.1976
     65  CA        63.4310   19.6480    1.7210 C.3    53  TYR53       0.1639
     66  C         63.8830   19.6760    0.2570 C.2    53  TYR53       0.2290
     67  O         63.3690   18.9130   -0.5590 O.2    53  TYR53      -0.2864
     68  CB        62.2350   20.5630    1.9690 C.3    53  TYR53       0.0560
     69  CG        61.2920   20.0010    3.0090 C.ar   53  TYR53      -0.0198
     70  CD1       61.1200   20.6290    4.2410 C.ar   53  TYR53      -0.0009
     71  CD2       60.6040   18.8190    2.7770 C.ar   53  TYR53      -0.0009
     72  CE1       60.2730   20.1020    5.2140 C.ar   53  TYR53       0.0417
     73  CE2       59.7410   18.2820    3.7490 C.ar   53  TYR53       0.0417
     74  CZ        59.5770   18.9310    4.9470 C.ar   53  TYR53       0.1957
     75  OH        58.7300   18.3930    5.8920 O.3    53  TYR53      -0.2866
     76  N         70.6330   18.1420    9.0500 N.3    63  PHE63      -0.1227
     77  CA        69.3600   18.6580    9.5350 C.3    63  PHE63       0.1736
     78  C         68.8660   17.9170   10.7530 C.2    63  PHE63       0.2595
     79  O         68.4380   18.5360   11.7110 O.2    63  PHE63      -0.2718
     80  CB        68.2580   18.6570    8.4570 C.3    63  PHE63       0.0547
     81  CG        66.8850   19.0530    8.9900 C.ar   63  PHE63      -0.0202
     82  CD1       66.6230   20.3680    9.3650 C.ar   63  PHE63      -0.0042
     83  CD2       65.8850   18.0980    9.1540 C.ar   63  PHE63      -0.0042
     84  CE1       65.3820   20.7450    9.8620 C.ar   63  PHE63      -0.0003
     85  CE2       64.6380   18.4570    9.6490 C.ar   63  PHE63      -0.0003
     86  CZ        64.3840   19.7950   10.0110 C.ar   63  PHE63      -0.0000
     87  N         68.8940   16.5880   10.7210 N.am   64  GLN64      -0.1979
     88  CA        68.3280   15.8260   11.8490 C.3    64  GLN64       0.1601
     89  C         69.2630   15.8170   13.0450 C.2    64  GLN64       0.2287
     90  O         68.8220   15.6730   14.1700 O.2    64  GLN64      -0.2864
     91  CB        67.9470   14.3930   11.4360 C.3    64  GLN64       0.0394
     92  CG        66.7020   14.3140   10.5560 C.3    64  GLN64       0.0908
     93  CD        65.4160   14.6870   11.2670 C.2    64  GLN64       0.2608
     94  OE1       65.3240   14.6840   12.5020 O.2    64  GLN64      -0.2717
     95  NE2       64.4030   14.9840   10.4890 N.am   64  GLN64      -0.0878
     96  N         68.2470   19.2300   14.5640 N.3    67  VAL67      -0.1245
     97  CA        66.9740   18.9690   15.2290 C.3    67  VAL67       0.1561
     98  C         67.1820   18.3280   16.6090 C.2    67  VAL67       0.2260
     99  O         66.7040   18.8610   17.6130 O.2    67  VAL67      -0.2867
    100  CB        66.0450   18.0900   14.3580 C.3    67  VAL67       0.0252
    101  CG1       64.8150   17.6570   15.1480 C.3    67  VAL67       0.0019
    102  CG2       65.6410   18.8650   13.1100 C.3    67  VAL67       0.0019
    103  N         66.0210   20.0600   20.0650 N.3    71  MET71      -0.1245
    104  CA        65.0450   19.3850   20.9410 C.3    71  MET71       0.1570
    105  C         65.6380   19.1510   22.3280 C.2    71  MET71       0.2261
    106  O         65.0040   19.4770   23.3320 O.2    71  MET71      -0.2867
    107  CB        64.5370   18.0810   20.3240 C.3    71  MET71       0.0387
    108  CG        63.7060   18.2520   19.0350 C.3    71  MET71       0.0595
    109  SD        62.5010   19.5960   19.0210 S.3    71  MET71      -0.1393
    110  CE        61.4210   19.1830   20.3680 C.3    71  MET71       0.0692
    111  N         56.0630   21.3540   21.7960 N.3    87  GLU87      -0.1231
    112  CA        55.6760   20.8880   20.4660 C.3    87  GLU87       0.1699
    113  C         56.7620   19.9160   19.9760 C.2    87  GLU87       0.2592
    114  O         57.9240   20.2980   19.8090 O.2    87  GLU87      -0.2718
    115  CB        55.5070   22.0550   19.4860 C.3    87  GLU87       0.0402
    116  CG        54.8090   21.6490   18.2140 C.3    87  GLU87       0.1161
    117  CD        54.6810   22.7480   17.1830 C.2    87  GLU87       0.3649
    118  OE1       55.0160   23.9290   17.4880 O.co2  87  GLU87      -0.2457
    119  OE2       54.2240   22.4050   16.0500 O.co2  87  GLU87      -0.2457
    120  N         56.3630   18.6560   19.7720 N.am   88  ARG88      -0.1980
    121  CA        57.2690   17.5480   19.4020 C.3    88  ARG88       0.1597
    122  C         58.3910   17.3170   20.4220 C.2    88  ARG88       0.2287
    123  O         58.4040   17.9440   21.4860 O.2    88  ARG88      -0.2864
    124  CB        57.8130   17.7350   17.9810 C.3    88  ARG88       0.0334
    125  CG        56.7400   17.5720   16.9040 C.3    88  ARG88       0.0492
    126  CD        57.2600   16.7940   15.7210 C.3    88  ARG88       0.2205
    127  NE        56.2070   16.5620   14.7340 N.pl3  88  ARG88      -0.0865
    128  CZ        56.0120   17.3180   13.6520 C.cat  88  ARG88       0.5346
    129  NH1       56.7980   18.3450   13.4160 N.pl3  88  ARG88       0.1354
    130  NH2       55.0290   17.0400   12.8010 N.pl3  88  ARG88       0.1354
    131  N         61.4410   12.7800   16.6050 N.3    93  ALA93      -0.1245
    132  CA        62.6060   12.9050   15.7260 C.3    93  ALA93       0.1562
    133  C         63.1910   11.5190   15.4540 C.2    93  ALA93       0.2260
    134  O         63.3670   11.1240   14.3080 O.2    93  ALA93      -0.2867
    135  CB        63.6600   13.8280   16.3600 C.3    93  ALA93       0.0290
    136  N         60.7580   10.6660   12.2930 N.3    97  PHE97      -0.1241
    137  CA        61.3480   11.4520   11.2190 C.3    97  PHE97       0.1605
    138  C         62.6340   10.8550   10.6780 C.2    97  PHE97       0.2264
    139  O         62.8050   10.7370    9.4610 O.2    97  PHE97      -0.2867
    140  CB        61.4800   12.9290   11.6320 C.3    97  PHE97       0.0534
    141  CG        60.1540   13.6410   11.6540 C.ar   97  PHE97      -0.0203
    142  CD1       59.4050   13.7130   12.8230 C.ar   97  PHE97      -0.0042
    143  CD2       59.6070   14.1440   10.4870 C.ar   97  PHE97      -0.0042
    144  CE1       58.1580   14.3090   12.8350 C.ar   97  PHE97      -0.0003
    145  CE2       58.3610   14.7620   10.4940 C.ar   97  PHE97      -0.0003
    146  CZ        57.6400   14.8480   11.6690 C.ar   97  PHE97      -0.0000
    147  N         63.3210    8.7700    7.0110 N.3   101  MET101     -0.1245
    148  CA        64.4280    9.1150    6.1150 C.3   101  MET101      0.1570
    149  C         65.3850    7.9330    5.8370 C.2   101  MET101      0.2261
    150  O         65.9440    7.8280    4.7500 O.2   101  MET101     -0.2867
    151  CB        65.1900   10.3130    6.6490 C.3   101  MET101      0.0387
    152  CG        64.4750   11.6220    6.4520 C.3   101  MET101      0.0595
    153  SD        65.2650   12.7150    7.6060 S.3   101  MET101     -0.1393
    154  CE        64.4850   14.2990    7.2690 C.3   101  MET101      0.0692
    155  N         57.9110   23.0700    3.6680 N.3   155  GLU155     -0.1245
    156  CA        57.2060   21.7750    3.6060 C.3   155  GLU155      0.1567
    157  C         56.0270   21.7060    2.6270 C.2   155  GLU155      0.2260
    158  O         55.3640   20.6540    2.5180 O.2   155  GLU155     -0.2867
    159  CB        56.6750   21.4080    4.9820 C.3   155  GLU155      0.0388
    160  CG        55.4120   22.1640    5.3070 C.3   155  GLU155      0.1160
    161  CD        55.1570   22.2860    6.7680 C.2   155  GLU155      0.3649
    162  OE1       54.0220   22.6730    7.1200 O.co2 155  GLU155     -0.2457
    163  OE2       56.0760   22.0030    7.5670 O.co2 155  GLU155     -0.2457
    164  N         54.7170   10.6150    1.5230 N.3   162  TYR162     -0.1241
    165  CA        55.5450   11.0080    2.6690 C.3   162  TYR162      0.1605
    166  C         54.7040   11.1820    3.9440 C.2   162  TYR162      0.2264
    167  O         55.0330   10.6320    4.9840 O.2   162  TYR162     -0.2867
    168  CB        56.3160   12.2760    2.3100 C.3   162  TYR162      0.0534
    169  CG        57.4380   12.6310    3.2510 C.ar  162  TYR162     -0.0201
    170  CD1       58.6460   11.9380    3.2170 C.ar  162  TYR162     -0.0009
    171  CD2       57.2960   13.6710    4.1750 C.ar  162  TYR162     -0.0009
    172  CE1       59.6870   12.2620    4.0900 C.ar  162  TYR162      0.0417
    173  CE2       58.3320   14.0130    5.0430 C.ar  162  TYR162      0.0417
    174  CZ        59.5260   13.3000    4.9900 C.ar  162  TYR162      0.1957
    175  OH        60.5670   13.6330    5.8360 O.3   162  TYR162     -0.2866
@<TRIPOS>BOND
     1    67    66    2
     2    66    65    1
     3   164   165    1
     4    65    68    1
     5    65    64    1
     6    68    69    1
     7    59    58    2
     8   168   165    1
     9   168   169    1
    10   158   157    2
    11   157   156    1
    12    64    58   am
    13   165   166    1
    14    58    57    1
    15    71    69   ar
    16    71    73   ar
    17    69    70   ar
    18   170   169   ar
    19   170   172   ar
    20   169   171   ar
    21    56    57    1
    22   156   155    1
    23   156   159    1
    24    57    60    1
    25    73    74   ar
    26   166   167    2
    27   172   174   ar
    28   171   173   ar
    29    70    72   ar
    30   150   149    2
    31    51    50    2
    32    74    72   ar
    33    74    75    1
    34    62    61    1
    35    62    63    1
    36   159   160    1
    37   174   173   ar
    38   174   175    1
    39    60    61    1
    40   160   161    1
    41    50    49    1
    42   149   148    1
    43   148   151    1
    44   148   147    1
    45   152   151    1
    46   152   153    1
    47   161   162   ar
    48   161   163   ar
    49    49    48    1
    50    49    52    1
    51     8     6    1
    52   154   153    1
    53    53    52    1
    54    53    54    1
    55    53    55    1
    56     7     5    1
    57     5     6    1
    58     5     2    1
    59    80    81    1
    60    80    77    1
    61     4     3    2
    62    81    83   ar
    63    81    82   ar
    64    76    77    1
    65    83    85   ar
    66     3     2    1
    67    82    84   ar
    68   139   138    2
    69    77    78    1
    70     2     1    1
    71    85    86   ar
    72    37    36    2
    73    84    86   ar
    74   143   145   ar
    75   143   141   ar
    76    95    93   am
    77   145   146   ar
    78    92    93    1
    79    92    91    1
    80    36    35    1
    81   138   137    1
    82    87    78   am
    83    87    88    1
    84    78    79    2
    85   137   140    1
    86   137   136    1
    87    93    94    2
    88    32    31    1
    89    91    88    1
    90   140   141    1
    91   141   142   ar
    92   146   144   ar
    93    38    35    1
    94    38    39    1
    95    88    89    1
    96    35    34    1
    97    30    29    2
    98    44    46   ar
    99    44    41   ar
   100   130   128    1
   101    46    47   ar
   102   142   144   ar
   103    31    33    1
   104    31    28    1
   105    39    41   ar
   106    39    40   ar
   107    89    90    2
   108    41    43   ar
   109   102   100    1
   110    29    28    1
   111   129   128    1
   112    28    27    1
   113   128   127    2
   114    40    42   ar
   115    47    45   ar
   116    25    24   ar
   117    17    16    1
   118   134   133    2
   119   100   101    1
   120   100    97    1
   121    43    45   ar
   122    43    42   ar
   123    96    97    1
   124   127   126    1
   125    26    24   ar
   126    24    23    1
   127    97    98    1
   128     9    10    1
   129   133   132    1
   130    16    15    1
   131   126   125    1
   132   132   135    1
   133   132   131    1
   134   119   117   ar
   135    23    22    1
   136    14    13    1
   137    14    15    1
   138    13    10    1
   139    10    11    1
   140    98    99    2
   141    22    19    1
   142    11    12    2
   143   125   124    1
   144    21    20    2
   145   117   118   ar
   146   117   116    1
   147    20    19    1
   148    19    18    1
   149   124   121    1
   150   116   115    1
   151   109   108    1
   152   109   110    1
   153   108   107    1
   154   121   120    1
   155   121   122    1
   156   115   112    1
   157   120   113   am
   158   114   113    2
   159   113   112    1
   160   103   104    1
   161   107   104    1
   162   122   123    2
   163   112   111    1
   164   104   105    1
   165   105   106    2
