@<TRIPOS>MOLECULE
tmp/2vpqB00.pdb
 228 211 0 0 0
SMALL
GASTEIGER

@<TRIPOS>ATOM
      1  N         -9.4020  -17.9650    9.0170 N.3    85  GLU85      -0.1245
      2  CA       -10.7540  -17.9410    8.4600 C.3    85  GLU85       0.1567
      3  C        -10.9160  -18.8820    7.2580 C.2    85  GLU85       0.2260
      4  O        -11.7950  -18.6980    6.4020 O.2    85  GLU85      -0.2867
      5  CB       -11.1210  -16.5000    8.1160 C.3    85  GLU85       0.0388
      6  CG       -11.3770  -15.6700    9.3730 C.3    85  GLU85       0.1160
      7  CD       -11.6540  -14.2140    9.0630 C.2    85  GLU85       0.3649
      8  OE1      -12.4950  -13.6040    9.7790 O.co2  85  GLU85      -0.2457
      9  OE2      -11.0380  -13.6970    8.0940 O.co2  85  GLU85      -0.2457
     10  N        -19.7690  -13.6780    3.1490 N.3   114  LYS114     -0.1245
     11  CA       -20.2730  -12.4940    3.8420 C.3   114  LYS114      0.1561
     12  C        -21.6950  -12.1350    3.4820 C.2   114  LYS114      0.2260
     13  O        -22.4130  -11.6090    4.3220 O.2   114  LYS114     -0.2867
     14  CB       -19.3310  -11.3050    3.6340 C.3   114  LYS114      0.0271
     15  CG       -18.0180  -11.4700    4.3910 C.3   114  LYS114      0.0035
     16  CD       -16.9190  -10.5570    3.9080 C.3   114  LYS114      0.0206
     17  CE       -17.0910   -9.1170    4.4140 C.3   114  LYS114      0.1093
     18  NZ       -15.9360   -8.2400    4.0190 N.3   114  LYS114     -0.1314
     19  N        -26.6720   -3.7240    6.9700 N.3   129  VAL129     -0.1245
     20  CA       -26.6160   -2.5800    6.0710 C.3   129  VAL129      0.1561
     21  C        -27.4770   -2.9100    4.8440 C.2   129  VAL129      0.2260
     22  O        -27.3850   -4.0160    4.3140 O.2   129  VAL129     -0.2867
     23  CB       -25.1590   -2.2230    5.6700 C.3   129  VAL129      0.0252
     24  CG1      -25.1350   -0.9620    4.8150 C.3   129  VAL129      0.0019
     25  CG2      -24.2870   -2.0270    6.9130 C.3   129  VAL129      0.0019
     26  N        -21.2120    0.5000   -2.2760 N.3   154  ILE154     -0.1245
     27  CA       -19.9330   -0.1600   -2.1030 C.3   154  ILE154      0.1561
     28  C        -20.1170   -1.6160   -2.5590 C.2   154  ILE154      0.2260
     29  O        -21.0180   -2.3120   -2.1050 O.2   154  ILE154     -0.2867
     30  CB       -19.4190   -0.0130   -0.6260 C.3   154  ILE154      0.0252
     31  CG1      -17.9950   -0.5410   -0.4770 C.3   154  ILE154      0.0019
     32  CG2      -20.3640   -0.6850    0.3830 C.3   154  ILE154      0.0019
     33  CD1      -17.2790   -0.0020    0.7250 C.3   154  ILE154      0.0001
     34  N        -18.6300   -5.2950   -2.6110 N.3   156  LYS156     -0.1245
     35  CA       -17.7850   -6.0440   -1.6770 C.3   156  LYS156      0.1561
     36  C        -17.7270   -7.5210   -2.0680 C.2   156  LYS156      0.2260
     37  O        -18.7650   -8.1320   -2.3490 O.2   156  LYS156     -0.2867
     38  CB       -18.3440   -5.9130   -0.2550 C.3   156  LYS156      0.0271
     39  CG       -18.3370   -4.4890    0.3230 C.3   156  LYS156      0.0035
     40  CD       -18.9180   -4.4510    1.7370 C.3   156  LYS156      0.0206
     41  CE       -17.8610   -4.6800    2.8200 C.3   156  LYS156      0.1093
     42  NZ       -18.4540   -4.8150    4.1910 N.3   156  LYS156     -0.1314
     43  N        -14.4190  -12.0720    0.7120 N.3   160  GLY160     -0.1210
     44  CA       -13.4150  -11.0700    0.9770 C.3   160  GLY160      0.1956
     45  C        -12.8820  -11.0790    2.3930 C.2   160  GLY160      0.2612
     46  O        -13.6280  -11.2710    3.3530 O.2   160  GLY160     -0.2717
     47  N        -11.5690  -10.8750    2.4920 N.am  161  GLY161     -0.1942
     48  CA       -10.8780  -10.5960    3.7510 C.3   161  GLY161      0.2014
     49  C         -9.6790   -9.6970    3.4800 C.2   161  GLY161      0.2639
     50  O         -9.3470   -9.4230    2.3290 O.2   161  GLY161     -0.2714
     51  N         -9.0310   -9.2310    4.5440 N.am  162  GLY162     -0.1939
     52  CA        -7.9130   -8.2960    4.4270 C.3   162  GLY162      0.2014
     53  C         -8.1900   -7.0060    3.6640 C.2   162  GLY162      0.2639
     54  O         -7.2510   -6.3170    3.2500 O.2   162  GLY162     -0.2714
     55  N         -9.4660   -6.6750    3.4640 N.am  163  GLY163     -0.1939
     56  CA        -9.8540   -5.4160    2.8250 C.3   163  GLY163      0.2014
     57  C         -9.6370   -5.3550    1.3230 C.2   163  GLY163      0.2638
     58  O         -9.6890   -4.2690    0.7380 O.2   163  GLY163     -0.2714
     59  N         -9.3970   -6.5060    0.6910 N.am  164  LYS164     -0.1977
     60  CA        -9.3230   -6.5870   -0.7650 C.3   164  LYS164      0.1596
     61  C        -10.6920   -6.9540   -1.3290 C.2   164  LYS164      0.2287
     62  O        -11.4650   -7.6660   -0.6990 O.2   164  LYS164     -0.2864
     63  CB        -8.2960   -7.6250   -1.2310 C.3   164  LYS164      0.0298
     64  CG        -6.9990   -7.6740   -0.4450 C.3   164  LYS164      0.0038
     65  CD        -5.9240   -8.4830   -1.1960 C.3   164  LYS164      0.0206
     66  CE        -4.9280   -9.1680   -0.2580 C.3   164  LYS164      0.1093
     67  NZ        -3.6110   -9.4970   -0.9390 N.3   164  LYS164     -0.1314
     68  N        -13.0480   -4.6180   -2.4100 N.3   166  ILE166     -0.1245
     69  CA       -14.0150   -3.6240   -1.9400 C.3   166  ILE166      0.1561
     70  C        -13.7800   -2.2680   -2.6130 C.2   166  ILE166      0.2260
     71  O        -12.6940   -1.6980   -2.4860 O.2   166  ILE166     -0.2867
     72  CB       -13.9010   -3.3780   -0.4240 C.3   166  ILE166      0.0252
     73  CG1      -13.8570   -4.6930    0.3540 C.3   166  ILE166      0.0019
     74  CG2      -15.0570   -2.4880    0.0240 C.3   166  ILE166      0.0019
     75  CD1      -13.8590   -4.5200    1.8500 C.3   166  ILE166      0.0001
     76  N        -23.8740   -2.9410   -0.8840 N.3   198  GLU198     -0.1231
     77  CA       -24.5000   -2.2560    0.2370 C.3   198  GLU198      0.1699
     78  C        -24.5130   -0.7570   -0.0030 C.2   198  GLU198      0.2592
     79  O        -23.7600   -0.2490   -0.8190 O.2   198  GLU198     -0.2718
     80  CB       -23.6960   -2.4860    1.5230 C.3   198  GLU198      0.0402
     81  CG       -23.3080   -3.9000    1.8090 C.3   198  GLU198      0.1161
     82  CD       -22.6930   -4.0350    3.1760 C.2   198  GLU198      0.3649
     83  OE1      -23.2080   -4.8180    3.9900 O.co2 198  GLU198     -0.2457
     84  OE2      -21.7030   -3.3420    3.4460 O.co2 198  GLU198     -0.2457
     85  N        -25.3490   -0.0430    0.7440 N.am  199  LYS199     -0.1966
     86  CA       -25.2350    1.4060    0.8040 C.3   199  LYS199      0.1728
     87  C        -23.8660    1.7230    1.3860 C.2   199  LYS199      0.2616
     88  O        -23.4490    1.0860    2.3590 O.2   199  LYS199     -0.2715
     89  CB       -26.3210    2.0180    1.6880 C.3   199  LYS199      0.0311
     90  CG       -26.3740    3.5500    1.6210 C.3   199  LYS199      0.0038
     91  CD       -27.1910    4.0070    0.4070 C.3   199  LYS199      0.0206
     92  CE       -26.8070    5.4120   -0.0680 C.3   199  LYS199      0.1093
     93  NZ       -27.8400    5.9730   -1.0030 N.3   199  LYS199     -0.1314
     94  N        -23.1580    2.6750    0.7830 N.am  200  PHE200     -0.1960
     95  CA       -21.8860    3.1270    1.3270 C.3   200  PHE200      0.1771
     96  C        -22.1540    4.1740    2.3960 C.2   200  PHE200      0.2619
     97  O        -22.5300    5.2930    2.0820 O.2   200  PHE200     -0.2715
     98  CB       -20.9780    3.6900    0.2320 C.3   200  PHE200      0.0574
     99  CG       -19.6500    4.1800    0.7490 C.ar  200  PHE200     -0.0200
    100  CD1      -18.7780    3.3040    1.3780 C.ar  200  PHE200     -0.0042
    101  CD2      -19.2840    5.5240    0.6310 C.ar  200  PHE200     -0.0042
    102  CE1      -17.5560    3.7410    1.8740 C.ar  200  PHE200     -0.0003
    103  CE2      -18.0650    5.9670    1.1230 C.ar  200  PHE200     -0.0003
    104  CZ       -17.1920    5.0690    1.7410 C.ar  200  PHE200     -0.0000
    105  N        -21.9660    3.8020    3.6560 N.am  201  ILE201     -0.1977
    106  CA       -22.2210    4.7160    4.7760 C.3   201  ILE201      0.1596
    107  C        -21.0520    5.6830    4.9170 C.2   201  ILE201      0.2287
    108  O        -19.8920    5.2780    5.0670 O.2   201  ILE201     -0.2864
    109  CB       -22.4570    3.9840    6.1080 C.3   201  ILE201      0.0276
    110  CG1      -23.5480    2.9160    5.9570 C.3   201  ILE201      0.0022
    111  CG2      -22.8140    4.9810    7.2020 C.3   201  ILE201      0.0022
    112  CD1      -24.8980    3.4320    5.5450 C.3   201  ILE201      0.0001
    113  N        -19.7920    7.5960    9.7490 N.3   204  PHE204     -0.1241
    114  CA       -19.9560    6.5480   10.7560 C.3   204  PHE204      0.1605
    115  C        -18.7480    6.3010   11.6420 C.2   204  PHE204      0.2264
    116  O        -17.6560    6.8280   11.4300 O.2   204  PHE204     -0.2867
    117  CB       -20.4430    5.2330   10.1160 C.3   204  PHE204      0.0534
    118  CG       -19.3730    4.4530    9.4130 C.ar  204  PHE204     -0.0203
    119  CD1      -19.0670    4.7120    8.0960 C.ar  204  PHE204     -0.0042
    120  CD2      -18.6990    3.4350   10.0660 C.ar  204  PHE204     -0.0042
    121  CE1      -18.0930    3.9870    7.4450 C.ar  204  PHE204     -0.0003
    122  CE2      -17.7310    2.7130    9.4240 C.ar  204  PHE204     -0.0003
    123  CZ       -17.4220    2.9850    8.1120 C.ar  204  PHE204     -0.0000
    124  N        -16.6460    3.1270   13.5370 N.3   206  HIS206     -0.1241
    125  CA       -16.4020    1.6820   13.5560 C.3   206  HIS206      0.1621
    126  C        -16.4450    1.1010   14.9760 C.2   206  HIS206      0.2264
    127  O        -15.4750    1.2020   15.7340 O.2   206  HIS206     -0.2867
    128  CB       -15.0720    1.3300   12.8920 C.3   206  HIS206      0.0745
    129  CG       -14.8410   -0.1450   12.7770 C.ar  206  HIS206      0.0817
    130  ND1      -14.8070   -0.8020   11.5630 N.ar  206  HIS206     -0.2268
    131  CD2      -14.6720   -1.0970   13.7260 C.ar  206  HIS206      0.1154
    132  CE1      -14.6130   -2.0930   11.7710 C.ar  206  HIS206      0.1986
    133  NE2      -14.5280   -2.2970   13.0760 N.ar  206  HIS206     -0.2212
    134  N         -8.6260    4.9460   11.1140 N.3   230  GLN230     -0.1245
    135  CA        -8.1540    4.0220   10.0870 C.3   230  GLN230      0.1566
    136  C         -7.3760    4.7900    9.0440 C.2   230  GLN230      0.2260
    137  O         -7.5650    5.9900    8.8800 O.2   230  GLN230     -0.2867
    138  CB        -9.3190    3.3340    9.3630 C.3   230  GLN230      0.0367
    139  CG       -10.5310    2.9350   10.2260 C.3   230  GLN230      0.0905
    140  CD       -11.1990    1.6320    9.7500 C.2   230  GLN230      0.2608
    141  OE1      -11.6140    0.8050   10.5620 O.2   230  GLN230     -0.2717
    142  NE2      -11.2880    1.4490    8.4300 N.am  230  GLN230     -0.0878
    143  N         -8.5420    1.9750    4.8630 N.3   233  MET233     -0.1245
    144  CA        -9.3390    0.7950    5.2180 C.3   233  MET233      0.1570
    145  C         -8.8090    0.0370    6.4500 C.2   233  MET233      0.2261
    146  O         -9.5780   -0.6710    7.1130 O.2   233  MET233     -0.2867
    147  CB        -9.4270   -0.1420    3.9980 C.3   233  MET233      0.0387
    148  CG       -10.7280   -0.8950    3.8320 C.3   233  MET233      0.0595
    149  SD       -10.7950   -1.5880    2.1670 S.3   233  MET233     -0.1393
    150  CE       -11.2910   -0.1480    1.2100 C.3   233  MET233      0.0692
    151  N         -7.0410   -0.5400   10.2690 N.3   235  LYS235     -0.1245
    152  CA        -7.1530    0.0330   11.6100 C.3   235  LYS235      0.1561
    153  C         -5.7800    0.5060   12.0870 C.2   235  LYS235      0.2260
    154  O         -4.7820   -0.1180   11.7690 O.2   235  LYS235     -0.2867
    155  CB        -7.7170   -1.0120   12.5790 C.3   235  LYS235      0.0271
    156  CG        -9.1280   -1.5080   12.2340 C.3   235  LYS235      0.0035
    157  CD        -9.4230   -2.8840   12.8390 C.3   235  LYS235      0.0206
    158  CE       -10.9230   -3.1480   12.9260 C.3   235  LYS235      0.1093
    159  NZ       -11.2700   -4.5870   13.1470 N.3   235  LYS235     -0.1314
    160  N        -18.4460   -6.8620   13.8180 N.3   273  GLU273     -0.1245
    161  CA       -18.1780   -5.4850   13.4370 C.3   273  GLU273      0.1567
    162  C        -19.4870   -4.8230   13.0810 C.2   273  GLU273      0.2260
    163  O        -20.2270   -5.3350   12.2320 O.2   273  GLU273     -0.2867
    164  CB       -17.2150   -5.4330   12.2410 C.3   273  GLU273      0.0388
    165  CG       -15.8840   -6.0960   12.5240 C.3   273  GLU273      0.1160
    166  CD       -14.8450   -5.8660   11.4370 C.2   273  GLU273      0.3649
    167  OE1      -15.1890   -5.9050   10.2360 O.co2 273  GLU273     -0.2457
    168  OE2      -13.6620   -5.6530   11.7790 O.co2 273  GLU273     -0.2457
    169  N        -21.3220   -1.0540   11.8430 N.3   275  ILE275     -0.1245
    170  CA       -21.3160    0.3350   11.4020 C.3   275  ILE275      0.1561
    171  C        -22.2740    1.1160   12.2940 C.2   275  ILE275      0.2260
    172  O        -23.4770    0.8310   12.3210 O.2   275  ILE275     -0.2867
    173  CB       -21.7710    0.4740    9.9380 C.3   275  ILE275      0.0252
    174  CG1      -20.6050    0.1540    8.9870 C.3   275  ILE275      0.0019
    175  CG2      -22.3420    1.8880    9.6910 C.3   275  ILE275      0.0019
    176  CD1      -21.0070   -0.0220    7.5380 C.3   275  ILE275      0.0001
    177  N        -21.9610   -5.3180    9.8400 N.3   286  MET286     -0.1230
    178  CA       -21.1580   -5.2670    8.6230 C.3   286  MET286      0.1702
    179  C        -20.5350   -6.6290    8.3200 C.2   286  MET286      0.2592
    180  O        -20.6100   -7.1130    7.1840 O.2   286  MET286     -0.2718
    181  CB       -20.0610   -4.2090    8.7660 C.3   286  MET286      0.0401
    182  CG       -19.0100   -4.2450    7.6610 C.3   286  MET286      0.0596
    183  SD       -17.9580   -2.8000    7.7090 S.3   286  MET286     -0.1393
    184  CE       -17.2030   -2.9890    9.3280 C.3   286  MET286      0.0692
    185  N        -19.8970   -7.2220    9.3340 N.am  287  GLU287     -0.1979
    186  CA       -19.3570   -8.5800    9.2460 C.3   287  GLU287      0.1602
    187  C        -18.9400   -9.1310   10.6070 C.2   287  GLU287      0.2287
    188  O        -18.8870   -8.4020   11.6090 O.2   287  GLU287     -0.2864
    189  CB       -18.1540   -8.6640    8.2930 C.3   287  GLU287      0.0415
    190  CG       -16.8880   -7.9990    8.8120 C.3   287  GLU287      0.1163
    191  CD       -15.6290   -8.5840    8.2320 C.2   287  GLU287      0.3649
    192  OE1      -14.5380   -8.1450    8.6280 O.co2 287  GLU287     -0.2457
    193  OE2      -15.7060   -9.4870    7.3870 O.co2 287  GLU287     -0.2457
    194  N        -15.6580  -11.2910   12.2620 N.3   289  ASN289     -0.1240
    195  CA       -14.3110  -11.8660   12.1640 C.3   289  ASN289      0.1653
    196  C        -14.2490  -13.1100   13.0490 C.2   289  ASN289      0.2266
    197  O        -14.2490  -13.0030   14.2720 O.2   289  ASN289     -0.2867
    198  CB       -13.2600  -10.8460   12.5990 C.3   289  ASN289      0.1155
    199  CG       -13.3340   -9.5620   11.7900 C.2   289  ASN289      0.2627
    200  OD1      -13.5930   -8.4940   12.3350 O.2   289  ASN289     -0.2716
    201  ND2      -13.1210   -9.6660   10.4810 N.am  289  ASN289     -0.0877
    202  N        -12.3670  -15.1030   14.5240 N.3   291  ARG291     -0.1245
    203  CA       -11.0070  -15.2620   14.9900 C.3   291  ARG291      0.1563
    204  C        -10.6850  -14.2030   16.0410 C.2   291  ARG291      0.2260
    205  O        -11.4390  -13.2450   16.2200 O.2   291  ARG291     -0.2867
    206  CB       -10.0460  -15.1300   13.8070 C.3   291  ARG291      0.0307
    207  CG       -10.3120  -13.9180   12.9250 C.3   291  ARG291      0.0489
    208  CD        -9.1840  -13.7080   11.9510 C.3   291  ARG291      0.2205
    209  NE        -9.4210  -12.5720   11.0640 N.pl3 291  ARG291     -0.0865
    210  CZ        -9.2330  -11.3010   11.3950 C.cat 291  ARG291      0.5346
    211  NH1       -8.8050  -10.9960   12.6050 N.pl3 291  ARG291      0.1354
    212  NH2       -9.4760  -10.3330   10.5100 N.pl3 291  ARG291      0.1354
    213  N         -8.4590  -10.9540   17.0360 N.3   293  GLN293     -0.1245
    214  CA        -8.0160   -9.8140   16.2150 C.3   293  GLN293      0.1566
    215  C         -6.7150   -9.2010   16.7230 C.2   293  GLN293      0.2260
    216  O         -6.2370   -9.5400   17.8080 O.2   293  GLN293     -0.2867
    217  CB        -9.1120   -8.7430   16.1420 C.3   293  GLN293      0.0367
    218  CG       -10.0810   -8.9510   14.9780 C.3   293  GLN293      0.0905
    219  CD       -11.2130   -7.9440   14.9520 C.2   293  GLN293      0.2608
    220  OE1      -11.7590   -7.5770   15.9970 O.2   293  GLN293     -0.2717
    221  NE2      -11.5930   -7.5080   13.7420 N.am  293  GLN293     -0.0878
    222  N        -14.9320    7.7890   10.5280 N.3   437  THR437     -0.1218
    223  CA       -13.8840    6.9990    9.8580 C.3   437  THR437      0.1862
    224  C        -12.9970    7.7360    8.8350 C.2   437  THR437      0.2287
    225  O        -11.8970    7.2700    8.5260 O.2   437  THR437     -0.2866
    226  CB       -14.4700    5.7280    9.1900 C.3   437  THR437      0.1770
    227  OG1      -15.6050    6.0700    8.3860 O.3   437  THR437     -0.2211
    228  CG2      -14.8670    4.7060   10.2540 C.3   437  THR437      0.0375
@<TRIPOS>BOND
     1    70    71    2
     2    70    69    1
     3    34    35    1
     4    28    29    2
     5    28    27    1
     6    68    69    1
     7    37    36    2
     8    26    27    1
     9    27    30    1
    10    36    35    1
    11    69    72    1
    12    35    38    1
    13    61    60    1
    14    61    62    2
    15    63    60    1
    16    63    64    1
    17    65    64    1
    18    65    66    1
    19    93    92    1
    20    67    66    1
    21    76    77    1
    22    79    78    2
    23    60    59    1
    24    30    31    1
    25    30    32    1
    26    31    33    1
    27    72    74    1
    28    72    73    1
    29    38    39    1
    30    92    91    1
    31    78    77    1
    32    78    85   am
    33    98    99    1
    34    98    95    1
    35    77    80    1
    36    39    40    1
    37    73    75    1
    38    91    90    1
    39   101    99   ar
    40   101   103   ar
    41    59    57   am
    42    43    44    1
    43    58    57    2
    44    85    86    1
    45    99   100   ar
    46    94    95    1
    47    94    87   am
    48    86    87    1
    49    86    89    1
    50    44    45    1
    51   103   104   ar
    52   150   149    1
    53    57    56    1
    54    95    96    1
    55   100   102   ar
    56    87    88    2
    57    80    81    1
    58    90    89    1
    59    40    41    1
    60   104   102   ar
    61    81    82    1
    62    97    96    2
    63   149   148    1
    64    50    49    2
    65    45    47   am
    66    45    46    2
    67    96   105   am
    68    47    48    1
    69    41    42    1
    70    56    55    1
    71    10    11    1
    72    82    84   ar
    73    82    83   ar
    74    54    53    2
    75    55    53   am
    76    49    48    1
    77    49    51   am
    78    12    11    1
    79    12    13    2
    80    14    11    1
    81    14    15    1
    82   105   106    1
    83    53    52    1
    84   148   147    1
    85    16    15    1
    86    16    17    1
    87   147   144    1
    88    18    17    1
    89    22    21    2
    90    52    51    1
    91   106   107    1
    92   106   109    1
    93    24    23    1
    94    21    20    1
    95   143   144    1
    96   107   108    2
    97   144   145    1
    98   112   110    1
    99    23    20    1
   100    23    25    1
   101   110   109    1
   102    20    19    1
   103   109   111    1
   104     4     3    2
   105   145   146    2
   106   180   179    2
   107     3     2    1
   108   193   191   ar
   109   121   119   ar
   110   121   123   ar
   111   176   174    1
   112   182   183    1
   113   182   181    1
   114   183   184    1
   115     9     7   ar
   116   119   118   ar
   117   123   122   ar
   118     5     2    1
   119     5     6    1
   120   191   192   ar
   121   191   190    1
   122   189   190    1
   123   189   186    1
   124   179   178    1
   125   179   185   am
   126   227   226    1
   127   142   140   am
   128     2     1    1
   129   225   224    2
   130   178   181    1
   131   178   177    1
   132   224   223    1
   133   137   136    2
   134   174   173    1
   135   136   135    1
   136     7     6    1
   137     7     8   ar
   138   226   223    1
   139   226   228    1
   140   186   185    1
   141   186   187    1
   142   138   135    1
   143   138   139    1
   144   118   120   ar
   145   118   117    1
   146   122   120   ar
   147   175   173    1
   148   113   114    1
   149   140   139    1
   150   140   141    2
   151   223   222    1
   152   173   170    1
   153   135   134    1
   154   117   114    1
   155   167   166   ar
   156   151   152    1
   157   201   199   am
   158   212   210    1
   159   187   188    2
   160   114   115    1
   161   209   210    2
   162   209   208    1
   163   210   211    1
   164   170   169    1
   165   170   171    1
   166   116   115    2
   167   166   168   ar
   168   166   165    1
   169   130   132   ar
   170   130   129   ar
   171   152   153    1
   172   152   155    1
   173   154   153    2
   174   132   133   ar
   175   199   200    2
   176   199   198    1
   177   208   207    1
   178   195   194    1
   179   195   198    1
   180   195   196    1
   181   163   162    2
   182   156   155    1
   183   156   157    1
   184   164   165    1
   185   164   161    1
   186   171   172    2
   187   129   128    1
   188   129   131   ar
   189   157   158    1
   190   128   125    1
   191   207   206    1
   192   158   159    1
   193   196   197    2
   194   133   131   ar
   195   162   161    1
   196   161   160    1
   197   124   125    1
   198   125   126    1
   199   221   219   am
   200   206   203    1
   201   202   203    1
   202   219   218    1
   203   219   220    2
   204   126   127    2
   205   218   217    1
   206   203   204    1
   207   204   205    2
   208   217   214    1
   209   214   215    1
   210   214   213    1
   211   215   216    2
