@<TRIPOS>MOLECULE
tmp/2vprA00.pdb
 175 166 0 0 0
SMALL
GASTEIGER

@<TRIPOS>ATOM
      1  N         -1.6270   40.6780   25.1640 N.3    59  LEU59      -0.1245
      2  CA        -0.1730   40.4360   25.1760 C.3    59  LEU59       0.1561
      3  C          0.1090   39.2060   24.3350 C.2    59  LEU59       0.2260
      4  O          1.0380   39.2310   23.5470 O.2    59  LEU59      -0.2867
      5  CB         0.4100   40.2940   26.5950 C.3    59  LEU59       0.0270
      6  CG         0.5440   41.5410   27.4850 C.3    59  LEU59       0.0019
      7  CD1        1.3540   41.1990   28.7600 C.3    59  LEU59       0.0001
      8  CD2        1.1950   42.6940   26.7930 C.3    59  LEU59       0.0001
      9  N          2.3210   41.1230   21.9470 N.3    63  HIS63      -0.1241
     10  CA         3.5990   41.1450   22.6740 C.3    63  HIS63       0.1621
     11  C          4.3580   39.8830   22.3560 C.2    63  HIS63       0.2264
     12  O          4.2060   38.8620   23.0530 O.2    63  HIS63      -0.2867
     13  CB         3.4050   41.2580   24.2000 C.3    63  HIS63       0.0745
     14  CG         4.6790   41.4310   24.9860 C.ar   63  HIS63       0.0817
     15  ND1        5.7230   42.2290   24.5710 N.ar   63  HIS63      -0.2268
     16  CD2        5.0520   40.9280   26.1900 C.ar   63  HIS63       0.1154
     17  CE1        6.6860   42.1980   25.4740 C.ar   63  HIS63       0.1986
     18  NE2        6.3130   41.4010   26.4620 N.ar   63  HIS63      -0.2212
     19  N          8.9510   38.2360   23.8840 N.3    66  VAL66      -0.1245
     20  CA         8.8250   37.7420   25.2380 C.3    66  VAL66       0.1561
     21  C         10.1340   37.1400   25.7880 C.2    66  VAL66       0.2260
     22  O         10.2750   36.9170   26.9900 O.2    66  VAL66      -0.2867
     23  CB         7.6430   36.7030   25.3190 C.3    66  VAL66       0.0252
     24  CG1        6.3120   37.3240   24.8180 C.3    66  VAL66       0.0019
     25  CG2        7.9230   35.4490   24.5160 C.3    66  VAL66       0.0019
     26  N         16.1670   43.6000   27.0400 N.3    78  LEU78      -0.1245
     27  CA        15.3970   44.5690   27.7840 C.3    78  LEU78       0.1561
     28  C         14.8410   45.6610   26.8480 C.2    78  LEU78       0.2260
     29  O         13.6490   46.0120   26.9120 O.2    78  LEU78      -0.2867
     30  CB        16.2550   45.1670   28.9090 C.3    78  LEU78       0.0270
     31  CG        15.9520   44.7030   30.3430 C.3    78  LEU78       0.0019
     32  CD1       15.2720   43.3110   30.4790 C.3    78  LEU78       0.0001
     33  CD2       17.2360   44.7840   31.1790 C.3    78  LEU78       0.0001
     34  N         12.2800   43.9270   24.4760 N.3    81  ASN81      -0.1225
     35  CA        11.1510   43.5420   25.3150 C.3    81  ASN81       0.1785
     36  C         10.2680   44.7480   25.6440 C.2    81  ASN81       0.2597
     37  O          9.0600   44.6920   25.5170 O.2    81  ASN81      -0.2718
     38  CB        11.6630   42.9160   26.6080 C.3    81  ASN81       0.1169
     39  CG        10.5430   42.4990   27.5560 C.2    81  ASN81       0.2627
     40  OD1       10.4100   43.0490   28.6560 O.2    81  ASN81      -0.2716
     41  ND2        9.7500   41.5210   27.1500 N.am   81  ASN81      -0.0877
     42  N         10.8850   45.8550   26.0500 N.am   82  ALA82      -0.1979
     43  CA        10.1330   46.9960   26.5260 C.3    82  ALA82       0.1597
     44  C          9.3870   47.6350   25.3370 C.2    82  ALA82       0.2287
     45  O          8.1970   47.9130   25.4320 O.2    82  ALA82      -0.2864
     46  CB        11.0540   47.9720   27.2490 C.3    82  ALA82       0.0319
     47  N          6.4210   45.4400   24.4890 N.3    85  PHE85      -0.1241
     48  CA         5.3830   45.6390   25.4970 C.3    85  PHE85       0.1605
     49  C          4.5810   46.9570   25.2950 C.2    85  PHE85       0.2264
     50  O          3.3400   47.0050   25.4260 O.2    85  PHE85      -0.2867
     51  CB         6.0560   45.5820   26.8690 C.3    85  PHE85       0.0534
     52  CG         5.1140   45.6440   28.0150 C.ar   85  PHE85      -0.0203
     53  CD1        4.1110   44.6980   28.1530 C.ar   85  PHE85      -0.0042
     54  CD2        5.2540   46.6030   28.9910 C.ar   85  PHE85      -0.0042
     55  CE1        3.2350   44.7240   29.2360 C.ar   85  PHE85      -0.0003
     56  CE2        4.3790   46.6320   30.0650 C.ar   85  PHE85      -0.0003
     57  CZ         3.3570   45.6940   30.1730 C.ar   85  PHE85      -0.0000
     58  N         -4.0210   46.7310   31.3800 N.3    99  HIS99      -0.1241
     59  CA        -2.9080   45.9780   31.9840 C.3    99  HIS99       0.1621
     60  C         -2.7480   46.3010   33.4730 C.2    99  HIS99       0.2264
     61  O         -2.5080   45.4130   34.2920 O.2    99  HIS99      -0.2867
     62  CB        -1.6040   46.2740   31.2590 C.3    99  HIS99       0.0745
     63  CG        -0.4800   45.3940   31.6910 C.ar   99  HIS99       0.0817
     64  ND1       -0.1070   44.2750   30.9860 N.ar   99  HIS99      -0.2268
     65  CD2        0.3340   45.4480   32.7740 C.ar   99  HIS99       0.1154
     66  CE1        0.8800   43.6660   31.6220 C.ar   99  HIS99       0.1986
     67  NE2        1.1710   44.3600   32.7050 N.ar   99  HIS99      -0.2212
     68  N         -2.5970   43.9160   36.9490 N.3   102  THR102     -0.1203
     69  CA        -2.6410   42.4880   36.7120 C.3   102  THR102      0.1994
     70  C         -1.3390   41.8920   37.2120 C.2   102  THR102      0.2618
     71  O         -0.4390   42.5860   37.6410 O.2   102  THR102     -0.2717
     72  CB        -2.8850   42.1110   35.1820 C.3   102  THR102      0.1784
     73  OG1       -1.8520   42.6700   34.3770 O.3   102  THR102     -0.2211
     74  CG2       -4.2330   42.6370   34.6750 C.3   102  THR102      0.0376
     75  N         -1.2950   40.5690   37.2060 N.am  103  ARG103     -0.1965
     76  CA        -0.0890   39.8170   37.4620 C.3   103  ARG103      0.1714
     77  C          0.0530   38.8520   36.3040 C.2   103  ARG103      0.2458
     78  O         -0.9380   38.5140   35.6740 O.2   103  ARG103     -0.2730
     79  CB        -0.1920   39.0970   38.7890 C.3   103  ARG103      0.0347
     80  CG        -0.1740   40.0590   40.0040 C.3   103  ARG103      0.0492
     81  CD         1.2160   40.6760   40.2570 C.3   103  ARG103      0.2205
     82  NE         1.2130   41.5830   41.4170 N.pl3 103  ARG103     -0.0865
     83  CZ         1.1240   42.9260   41.3560 C.cat 103  ARG103      0.5346
     84  NH1        1.0250   43.5750   40.1910 N.pl3 103  ARG103      0.1354
     85  NH2        1.1410   43.6440   42.4750 N.pl3 103  ARG103      0.1354
     86  N          1.2810   38.4200   36.0100 N.am  104  PRO104     -0.2727
     87  CA         1.4440   37.6030   34.8300 C.3   104  PRO104      0.1402
     88  C          0.5580   36.3500   34.8890 C.2   104  PRO104      0.2269
     89  O          0.2320   35.8350   35.9720 O.2   104  PRO104     -0.2865
     90  CB         2.9510   37.2740   34.8270 C.3   104  PRO104      0.0296
     91  CG         3.3550   37.3640   36.2850 C.3   104  PRO104      0.0237
     92  CD         2.5500   38.5710   36.7510 C.3   104  PRO104      0.0939
     93  N          1.8100   33.0180   30.5000 N.3   108  GLN108     -0.1245
     94  CA         3.0320   33.8040   30.4910 C.3   108  GLN108      0.1566
     95  C          4.0740   33.2890   31.5010 C.2   108  GLN108      0.2260
     96  O          5.1210   33.9080   31.6680 O.2   108  GLN108     -0.2867
     97  CB         2.6720   35.2620   30.8150 C.3   108  GLN108      0.0367
     98  CG         1.5690   35.8800   29.9070 C.3   108  GLN108      0.0905
     99  CD         0.9110   37.1750   30.4740 C.2   108  GLN108      0.2608
    100  OE1        1.0530   37.5120   31.6540 O.2   108  GLN108     -0.2717
    101  NE2        0.1700   37.8770   29.6220 N.am  108  GLN108     -0.0878
    102  N          7.6970   31.9640   30.0300 N.3   111  THR111     -0.1203
    103  CA         8.5120   33.0070   29.4470 C.3   111  THR111      0.1994
    104  C          8.9030   33.9880   30.5470 C.2   111  THR111      0.2618
    105  O         10.0720   34.3710   30.6560 O.2   111  THR111     -0.2717
    106  CB         7.7860   33.7000   28.2680 C.3   111  THR111      0.1784
    107  OG1        6.5540   34.2660   28.7270 O.3   111  THR111     -0.2211
    108  CG2        7.4940   32.6850   27.1620 C.3   111  THR111      0.0376
    109  N          7.9510   34.3970   31.3860 N.am  112  SER112     -0.1951
    110  CA         8.3020   35.3750   32.4180 C.3   112  SER112      0.1924
    111  C          9.3160   34.8010   33.4020 C.2   112  SER112      0.2314
    112  O         10.2980   35.4340   33.7420 O.2   112  SER112     -0.2863
    113  CB         7.0600   35.8910   33.1190 C.3   112  SER112      0.2116
    114  OG         6.3130   36.7140   32.2200 O.3   112  SER112     -0.2180
    115  N         12.5140   35.1680   31.7130 N.3   115  GLN115     -0.1231
    116  CA        13.0400   36.5250   31.6850 C.3   115  GLN115      0.1698
    117  C         13.8250   36.7740   32.9410 C.2   115  GLN115      0.2592
    118  O         14.8890   37.4010   32.8920 O.2   115  GLN115     -0.2718
    119  CB        11.9310   37.5830   31.5540 C.3   115  GLN115      0.0381
    120  CG        11.2710   37.6560   30.1780 C.3   115  GLN115      0.0905
    121  CD        10.0330   38.5740   30.1410 C.2   115  GLN115      0.2608
    122  OE1        9.8240   39.3910   31.0340 O.2   115  GLN115     -0.2717
    123  NE2        9.2060   38.4210   29.1060 N.am  115  GLN115     -0.0878
    124  N         13.3170   36.2900   34.0720 N.am  116  LEU116     -0.1980
    125  CA        14.0200   36.5000   35.3470 C.3   116  LEU116      0.1596
    126  C         15.2860   35.6360   35.3950 C.2   116  LEU116      0.2287
    127  O         16.3530   36.1020   35.7570 O.2   116  LEU116     -0.2864
    128  CB        13.1170   36.2090   36.5350 C.3   116  LEU116      0.0297
    129  CG        11.8980   37.1060   36.7940 C.3   116  LEU116      0.0022
    130  CD1       10.8090   36.3100   37.5610 C.3   116  LEU116      0.0001
    131  CD2       12.2640   38.4100   37.5440 C.3   116  LEU116      0.0001
    132  N         13.8430   41.1790   39.4480 N.3   130  VAL130     -0.1245
    133  CA        12.4280   41.4200   39.7130 C.3   130  VAL130      0.1561
    134  C         12.1480   42.8950   39.6310 C.2   130  VAL130      0.2260
    135  O         11.1650   43.3070   39.0100 O.2   130  VAL130     -0.2867
    136  CB        12.0280   40.9730   41.1100 C.3   130  VAL130      0.0252
    137  CG1       10.5350   41.2750   41.3820 C.3   130  VAL130      0.0019
    138  CG2       12.3680   39.4860   41.2980 C.3   130  VAL130      0.0019
    139  N         12.4570   44.2690   35.7280 N.3   133  LEU133     -0.1231
    140  CA        11.3410   43.8450   34.8690 C.3   133  LEU133      0.1693
    141  C         10.0430   44.5250   35.2690 C.2   133  LEU133      0.2592
    142  O          9.3740   45.1390   34.4370 O.2   133  LEU133     -0.2718
    143  CB        11.1510   42.3270   34.9570 C.3   133  LEU133      0.0284
    144  CG        11.9610   41.3940   34.0480 C.3   133  LEU133      0.0019
    145  CD1       13.0860   42.1040   33.3760 C.3   133  LEU133      0.0001
    146  CD2       12.4570   40.2020   34.8650 C.3   133  LEU133      0.0001
    147  N          9.6780   44.3700   36.5410 N.am  134  SER134     -0.1952
    148  CA         8.5840   45.1110   37.1420 C.3   134  SER134      0.1924
    149  C          8.5830   46.5700   36.6930 C.2   134  SER134      0.2314
    150  O          7.5820   47.0700   36.1660 O.2   134  SER134     -0.2863
    151  CB         8.7530   45.1370   38.6630 C.3   134  SER134      0.2116
    152  OG         8.3320   43.9160   39.1960 O.3   134  SER134     -0.2180
    153  N         10.4300   48.4980   34.4690 N.3   136  ILE136     -0.1231
    154  CA        10.3140   48.7390   33.0190 C.3   136  ILE136      0.1692
    155  C          8.8590   48.5860   32.4910 C.2   136  ILE136      0.2592
    156  O          8.4310   49.3190   31.5760 O.2   136  ILE136     -0.2718
    157  CB        11.2160   47.7780   32.2410 C.3   136  ILE136      0.0266
    158  CG1       12.6920   48.0450   32.5270 C.3   136  ILE136      0.0019
    159  CG2       11.0180   47.9040   30.7410 C.3   136  ILE136      0.0020
    160  CD1       13.5180   46.7760   32.3620 C.3   136  ILE136      0.0001
    161  N          8.1120   47.6380   33.0620 N.am  137  ALA137     -0.1966
    162  CA         6.6780   47.5480   32.8400 C.3   137  ALA137      0.1728
    163  C          5.9700   48.8080   33.3380 C.2   137  ALA137      0.2616
    164  O          5.2290   49.4540   32.6050 O.2   137  ALA137     -0.2715
    165  CB         6.0970   46.2970   33.5450 C.3   137  ALA137      0.0334
    166  N          6.2050   49.1620   34.5890 N.am  138  HIS138     -0.1973
    167  CA         5.6350   50.3740   35.1610 C.3   138  HIS138      0.1656
    168  C          6.0020   51.6070   34.3180 C.2   138  HIS138      0.2291
    169  O          5.1950   52.4980   34.0680 O.2   138  HIS138     -0.2864
    170  CB         6.1360   50.5710   36.6090 C.3   138  HIS138      0.0771
    171  CG         5.7020   49.4990   37.5580 C.ar  138  HIS138      0.0820
    172  ND1        6.3700   49.2240   38.7290 N.ar  138  HIS138     -0.2267
    173  CD2        4.6310   48.6670   37.5350 C.ar  138  HIS138      0.1154
    174  CE1        5.7450   48.2520   39.3710 C.ar  138  HIS138      0.1986
    175  NE2        4.6830   47.9040   38.6730 N.ar  138  HIS138     -0.2212
@<TRIPOS>BOND
     1     9    10    1
     2    11    10    1
     3    11    12    2
     4    10    13    1
     5     4     3    2
     6    19    20    1
     7    13    14    1
     8     3     2    1
     9    34    35    1
    10    47    48    1
    11    25    23    1
    12    15    14   ar
    13    15    17   ar
    14    24    23    1
    15    14    16   ar
    16     1     2    1
    17     2     5    1
    18    20    23    1
    19    20    21    1
    20    49    50    2
    21    49    48    1
    22    35    36    1
    23    35    38    1
    24    44    45    2
    25    44    43    1
    26    17    18   ar
    27    48    51    1
    28    37    36    2
    29    36    42   am
    30    21    22    2
    31    42    43    1
    32    16    18   ar
    33    43    46    1
    34     5     6    1
    35    38    39    1
    36     8     6    1
    37    28    29    2
    38    28    27    1
    39    51    52    1
    40    26    27    1
    41    41    39   am
    42   108   106    1
    43     6     7    1
    44    39    40    2
    45    27    30    1
    46    52    53   ar
    47    52    54   ar
    48    53    55   ar
    49   106   107    1
    50   106   103    1
    51    30    31    1
    52    54    56   ar
    53   123   121   am
    54    55    57   ar
    55   103   102    1
    56   103   104    1
    57   101    99   am
    58    98    99    1
    59    98    97    1
    60    56    57   ar
    61   121   120    1
    62   121   122    2
    63   120   119    1
    64    31    32    1
    65    31    33    1
    66    99   100    2
    67    94    93    1
    68    94    97    1
    69    94    95    1
    70   104   105    2
    71   104   109   am
    72   159   157    1
    73    64    66   ar
    74    64    63   ar
    75    62    63    1
    76    62    59    1
    77    58    59    1
    78   109   110    1
    79    95    96    2
    80   119   116    1
    81   156   155    2
    82    66    67   ar
    83   116   115    1
    84   116   117    1
    85    63    65   ar
    86    59    60    1
    87   114   113    1
    88   157   158    1
    89   157   154    1
    90   160   158    1
    91   110   113    1
    92   110   111    1
    93   155   154    1
    94   155   161   am
    95   164   163    2
    96    67    65   ar
    97   162   161    1
    98   162   163    1
    99   162   165    1
   100   118   117    2
   101   117   124   am
   102   154   153    1
   103   163   166   am
   104   145   144    1
   105   111   112    2
   106    60    61    2
   107   144   146    1
   108   144   143    1
   109   169   168    2
   110   124   125    1
   111   168   167    1
   112    73    72    1
   113   142   141    2
   114   166   167    1
   115    74    72    1
   116    90    87    1
   117    90    91    1
   118    87    88    1
   119    87    86    1
   120   140   143    1
   121   140   141    1
   122   140   139    1
   123    88    89    2
   124   167   170    1
   125    72    69    1
   126   141   147   am
   127   125   126    1
   128   125   128    1
   129   126   127    2
   130    78    77    2
   131    86    77   am
   132    86    92    1
   133   150   149    2
   134    91    92    1
   135    77    76    1
   136   128   129    1
   137   147   148    1
   138   170   171    1
   139   149   148    1
   140    69    68    1
   141    69    70    1
   142   129   131    1
   143   129   130    1
   144   148   151    1
   145    75    70   am
   146    75    76    1
   147    70    71    2
   148    76    79    1
   149   173   171   ar
   150   173   175   ar
   151   171   172   ar
   152   151   152    1
   153   175   174   ar
   154   172   174   ar
   155    79    80    1
   156   135   134    2
   157   132   133    1
   158   134   133    1
   159   133   136    1
   160    80    81    1
   161    84    83    1
   162    81    82    1
   163   136   138    1
   164   136   137    1
   165    83    82    2
   166    83    85    1
