@<TRIPOS>MOLECULE
tmp/2vpwC00.pdb
 140 135 0 0 0
SMALL
GASTEIGER

@<TRIPOS>ATOM
      1  N        147.4150  157.0830   45.5980 N.3    13  TRP13      -0.1241
      2  CA       148.8530  157.1900   45.8680 C.3    13  TRP13       0.1605
      3  C        149.4140  155.8000   45.7370 C.2    13  TRP13       0.2264
      4  O        149.1140  154.9130   46.5160 O.2    13  TRP13      -0.2867
      5  CB       149.1950  157.7540   47.2660 C.3    13  TRP13       0.0550
      6  CG       148.9580  159.2420   47.3720 C.ar   13  TRP13       0.0003
      7  CD1      149.0020  160.1490   46.3510 C.ar   13  TRP13       0.0946
      8  CD2      148.6070  159.9860   48.5480 C.ar   13  TRP13       0.0152
      9  NE1      148.6850  161.4060   46.8110 N.ar   13  TRP13      -0.2442
     10  CE2      148.4420  161.3360   48.1540 C.ar   13  TRP13       0.0810
     11  CE3      148.4210  159.6480   49.8940 C.ar   13  TRP13       0.0012
     12  CZ2      148.0850  162.3400   49.0570 C.ar   13  TRP13       0.0191
     13  CZ3      148.0680  160.6420   50.7890 C.ar   13  TRP13       0.0001
     14  CH2      147.9050  161.9740   50.3660 C.ar   13  TRP13       0.0015
     15  N        154.4640  156.7850   44.9020 N.3    17  ASN17      -0.1240
     16  CA       154.4270  157.7490   45.9250 C.3    17  ASN17       0.1653
     17  C        154.8900  157.2210   47.2820 C.2    17  ASN17       0.2266
     18  O        155.4960  157.9640   48.0450 O.2    17  ASN17      -0.2867
     19  CB       153.0080  158.2700   46.0570 C.3    17  ASN17       0.1155
     20  CG       153.0450  159.7780   46.1390 C.2    17  ASN17       0.2627
     21  OD1      152.8070  160.4470   45.0300 O.2    17  ASN17      -0.2716
     22  ND2      153.2900  160.3250   47.2190 N.am   17  ASN17      -0.0877
     23  N        158.1870  157.8800   47.4150 N.3    20  HIS20      -0.1226
     24  CA       158.4470  159.2700   47.7780 C.3    20  HIS20       0.1752
     25  C        158.3820  159.3630   49.3050 C.2    20  HIS20       0.2596
     26  O        159.1990  160.0310   49.9360 O.2    20  HIS20      -0.2718
     27  CB       157.4270  160.1650   47.1080 C.3    20  HIS20       0.0759
     28  CG       157.1680  161.4290   47.9280 C.ar   20  HIS20       0.0818
     29  ND1      157.5170  162.6800   47.4910 N.ar   20  HIS20      -0.2268
     30  CD2      156.6070  161.6040   49.1440 C.ar   20  HIS20       0.1154
     31  CE1      157.1880  163.5750   48.4050 C.ar   20  HIS20       0.1986
     32  NE2      156.6320  162.9480   49.4190 N.ar   20  HIS20      -0.2212
     33  N        157.4320  158.6690   49.8790 N.am   21  PHE21      -0.1976
     34  CA       157.2750  158.7100   51.3060 C.3    21  PHE21       0.1639
     35  C        158.4690  158.1600   52.0450 C.2    21  PHE21       0.2290
     36  O        158.8480  158.7070   53.0780 O.2    21  PHE21      -0.2864
     37  CB       156.0240  157.9610   51.7130 C.3    21  PHE21       0.0560
     38  CG       154.8880  158.9050   51.9570 C.ar   21  PHE21      -0.0200
     39  CD1      154.1270  159.4020   50.9110 C.ar   21  PHE21      -0.0042
     40  CD2      154.5850  159.2880   53.2490 C.ar   21  PHE21      -0.0042
     41  CE1      153.0680  160.2660   51.1530 C.ar   21  PHE21      -0.0003
     42  CE2      153.5320  160.1490   53.5010 C.ar   21  PHE21      -0.0003
     43  CZ       152.7700  160.6380   52.4500 C.ar   21  PHE21      -0.0000
     44  N        162.5920  165.5900   45.3740 N.3    60  LEU60      -0.1245
     45  CA       161.8070  166.5030   44.5630 C.3    60  LEU60       0.1561
     46  C        161.7430  165.9220   43.1420 C.2    60  LEU60       0.2260
     47  O        160.7280  166.0490   42.4640 O.2    60  LEU60      -0.2867
     48  CB       162.4030  167.9090   44.5340 C.3    60  LEU60       0.0270
     49  CG       162.4110  168.7200   45.8210 C.3    60  LEU60       0.0019
     50  CD1      163.1370  170.0430   45.6310 C.3    60  LEU60       0.0001
     51  CD2      160.9830  168.9430   46.3020 C.3    60  LEU60       0.0001
     52  N        159.0600  163.3750   43.1290 N.3    63  LEU63      -0.1245
     53  CA       157.7430  163.9930   43.4170 C.3    63  LEU63       0.1561
     54  C        157.2310  164.5800   42.0990 C.2    63  LEU63       0.2260
     55  O        156.0220  164.6330   41.8450 O.2    63  LEU63      -0.2867
     56  CB       157.8550  165.1680   44.3780 C.3    63  LEU63       0.0270
     57  CG       157.5280  164.8690   45.8400 C.3    63  LEU63       0.0019
     58  CD1      158.1130  165.9270   46.7690 C.3    63  LEU63       0.0001
     59  CD2      156.0330  164.7580   46.0430 C.3    63  LEU63       0.0001
     60  N        156.6690  161.6890   39.1790 N.3    66  GLU66      -0.1231
     61  CA       155.5650  160.8110   39.4250 C.3    66  GLU66       0.1699
     62  C        154.2470  161.5830   39.3720 C.2    66  GLU66       0.2592
     63  O        153.1600  161.0230   39.5210 O.2    66  GLU66      -0.2718
     64  CB       155.7880  160.0610   40.7610 C.3    66  GLU66       0.0402
     65  CG       154.6030  160.0410   41.7140 C.3    66  GLU66       0.1161
     66  CD       154.9790  160.5720   43.0950 C.2    66  GLU66       0.3649
     67  OE1      156.1060  160.3050   43.5650 O.co2  66  GLU66      -0.2457
     68  OE2      154.1340  161.2730   43.7100 O.co2  66  GLU66      -0.2457
     69  N        154.3770  162.8810   39.1430 N.am   67  SER67      -0.1952
     70  CA       153.2060  163.7080   39.0990 C.3    67  SER67       0.1924
     71  C        152.5190  163.6530   37.7420 C.2    67  SER67       0.2314
     72  O        153.1650  163.8370   36.7030 O.2    67  SER67      -0.2863
     73  CB       153.5320  165.1590   39.4530 C.3    67  SER67       0.2116
     74  OG       152.4780  166.0340   39.0830 O.3    67  SER67      -0.2180
     75  N        153.8250  173.0680   39.1730 N.3    75  HIS75      -0.1241
     76  CA       154.3660  173.1150   40.5340 C.3    75  HIS75       0.1621
     77  C        154.8860  174.4680   40.8950 C.2    75  HIS75       0.2264
     78  O        155.1640  174.7490   42.0570 O.2    75  HIS75      -0.2867
     79  CB       155.4880  172.1430   40.6630 C.3    75  HIS75       0.0745
     80  CG       155.0250  170.7070   40.5270 C.ar   75  HIS75       0.0817
     81  ND1      154.5270  170.1790   39.3630 N.ar   75  HIS75      -0.2268
     82  CD2      155.0100  169.7060   41.4290 C.ar   75  HIS75       0.1154
     83  CE1      154.2310  168.9070   39.5490 C.ar   75  HIS75       0.1986
     84  NE2      154.5150  168.5930   40.7970 N.ar   75  HIS75      -0.2212
     85  N        153.0860  176.0380   43.7310 N.3    78  LEU78      -0.1231
     86  CA       153.4500  175.5880   45.0440 C.3    78  LEU78       0.1693
     87  C        154.1820  176.7010   45.7610 C.2    78  LEU78       0.2592
     88  O        154.1070  176.8680   46.9850 O.2    78  LEU78      -0.2718
     89  CB       154.3920  174.3890   44.8670 C.3    78  LEU78       0.0284
     90  CG       154.1740  173.1210   45.6870 C.3    78  LEU78       0.0019
     91  CD1      152.7050  172.9350   46.0160 C.3    78  LEU78       0.0001
     92  CD2      154.7110  171.9060   44.9440 C.3    78  LEU78       0.0001
     93  N        154.9030  177.4660   44.9510 N.am   79  PHE79      -0.1976
     94  CA       155.7830  178.5190   45.4040 C.3    79  PHE79       0.1639
     95  C        155.3570  179.9370   45.1950 C.2    79  PHE79       0.2290
     96  O        156.0760  180.8610   45.5800 O.2    79  PHE79      -0.2864
     97  CB       157.1510  178.3030   44.7580 C.3    79  PHE79       0.0560
     98  CG       157.7190  177.0010   45.1910 C.ar   79  PHE79      -0.0200
     99  CD1      157.9350  175.9600   44.3030 C.ar   79  PHE79      -0.0042
    100  CD2      158.0230  176.8260   46.5270 C.ar   79  PHE79      -0.0042
    101  CE1      158.4640  174.7610   44.7470 C.ar   79  PHE79      -0.0003
    102  CE2      158.5490  175.6370   46.9860 C.ar   79  PHE79      -0.0003
    103  CZ       158.7700  174.5960   46.0940 C.ar   79  PHE79      -0.0000
    104  N        151.1890  169.4150   52.2150 N.3    88  ILE88      -0.1245
    105  CA       152.0540  169.3410   51.0630 C.3    88  ILE88       0.1561
    106  C        152.6470  170.6870   50.7460 C.2    88  ILE88       0.2260
    107  O        153.7200  170.7640   50.1630 O.2    88  ILE88      -0.2867
    108  CB       151.3120  168.8060   49.8270 C.3    88  ILE88       0.0252
    109  CG1      150.7680  167.4040   50.1220 C.3    88  ILE88       0.0019
    110  CG2      152.2290  168.7670   48.6270 C.3    88  ILE88       0.0019
    111  CD1      151.7740  166.2980   49.8670 C.3    88  ILE88       0.0001
    112  N        155.4420  170.9570   53.1530 N.3    91  GLY91      -0.1210
    113  CA       156.4920  170.0750   52.6680 C.3    91  GLY91       0.1956
    114  C        157.3100  170.6420   51.5170 C.2    91  GLY91       0.2611
    115  O        158.5240  170.4060   51.4360 O.2    91  GLY91      -0.2717
    116  N        156.6430  171.3680   50.6320 N.am   92  ALA92      -0.1979
    117  CA       157.3170  171.9510   49.4860 C.3    92  ALA92       0.1597
    118  C        158.2720  173.0730   49.8810 C.2    92  ALA92       0.2287
    119  O        159.3740  173.1830   49.3430 O.2    92  ALA92      -0.2864
    120  CB       156.3070  172.4770   48.4870 C.3    92  ALA92       0.0319
    121  N        161.4950  171.5010   52.3990 N.3    95  LEU95      -0.1245
    122  CA       162.4890  170.8470   51.5700 C.3    95  LEU95       0.1561
    123  C        163.1880  171.9200   50.7170 C.2    95  LEU95       0.2260
    124  O        164.4100  172.0970   50.7990 O.2    95  LEU95      -0.2867
    125  CB       161.8340  169.7670   50.6410 C.3    95  LEU95       0.0270
    126  CG       161.0000  168.6170   51.2480 C.3    95  LEU95       0.0019
    127  CD1      159.9250  168.1500   50.2640 C.3    95  LEU95       0.0001
    128  CD2      161.9010  167.4600   51.6540 C.3    95  LEU95       0.0001
    129  N        155.7800  167.0040   57.7060 N.3   129  TYR129     -0.1241
    130  CA       154.6460  167.1110   56.7960 C.3   129  TYR129      0.1605
    131  C        154.0700  165.7980   56.2580 C.2   129  TYR129      0.2264
    132  O        152.8600  165.7310   56.0030 O.2   129  TYR129     -0.2867
    133  CB       155.0140  168.1010   55.6900 C.3   129  TYR129      0.0534
    134  CG       155.3900  167.4590   54.3850 C.ar  129  TYR129     -0.0201
    135  CD1      154.4130  167.0930   53.4620 C.ar  129  TYR129     -0.0009
    136  CD2      156.7190  167.2300   54.0680 C.ar  129  TYR129     -0.0009
    137  CE1      154.7530  166.5110   52.2560 C.ar  129  TYR129      0.0417
    138  CE2      157.0710  166.6520   52.8700 C.ar  129  TYR129      0.0417
    139  CZ       156.0850  166.2950   51.9680 C.ar  129  TYR129      0.1957
    140  OH       156.4350  165.6960   50.7790 O.3   129  TYR129     -0.2866
@<TRIPOS>BOND
     1    72    71    2
     2    71    70    1
     3    74    73    1
     4    70    69    1
     5    70    73    1
     6    69    62   am
     7    75    76    1
     8    60    61    1
     9    81    83   ar
    10    81    80   ar
    11    62    61    1
    12    62    63    2
    13    61    64    1
    14    83    84   ar
    15    80    79    1
    16    80    82   ar
    17    76    79    1
    18    76    77    1
    19    64    65    1
    20    84    82   ar
    21    77    78    2
    22    65    66    1
    23    55    54    2
    24    54    53    1
    25    47    46    2
    26    66    67   ar
    27    66    68   ar
    28    52    53    1
    29    46    45    1
    30    53    56    1
    31    85    86    1
    32    99   101   ar
    33    99    98   ar
    34    56    57    1
    35    48    45    1
    36    48    49    1
    37    45    44    1
    38   101   103   ar
    39    97    98    1
    40    97    94    1
    41    89    86    1
    42    89    90    1
    43    15    16    1
    44    92    90    1
    45    93    94    1
    46    93    87   am
    47    21    20    2
    48    86    87    1
    49    98   100   ar
    50    95    94    1
    51    95    96    2
    52     1     2    1
    53    50    49    1
    54    90    91    1
    55     3     2    1
    56     3     4    2
    57    87    88    2
    58    49    51    1
    59    57    59    1
    60    57    58    1
    61     2     5    1
    62    16    19    1
    63    16    17    1
    64    19    20    1
    65   103   102   ar
    66    20    22   am
    67     7     9   ar
    68     7     6   ar
    69   100   102   ar
    70     9    10   ar
    71    27    24    1
    72    27    28    1
    73     5     6    1
    74    17    18    2
    75     6     8   ar
    76    23    24    1
    77    29    28   ar
    78    29    31   ar
    79    24    25    1
    80    28    30   ar
    81    10     8   ar
    82    10    12   ar
    83    31    32   ar
    84   120   117    1
    85     8    11   ar
    86   110   108    1
    87    12    14   ar
    88    30    32   ar
    89    25    33   am
    90    25    26    2
    91   119   118    2
    92   117   118    1
    93   117   116    1
    94   108   109    1
    95   108   105    1
    96   111   109    1
    97    33    34    1
    98    11    13   ar
    99   107   106    2
   100   127   126    1
   101    14    13   ar
   102   116   114   am
   103   125   126    1
   104   125   122    1
   105   123   124    2
   106   123   122    1
   107   106   105    1
   108   140   139    1
   109    39    41   ar
   110    39    38   ar
   111   105   104    1
   112    41    43   ar
   113   126   128    1
   114    34    37    1
   115    34    35    1
   116   115   114    2
   117   114   113    1
   118   122   121    1
   119    37    38    1
   120    38    40   ar
   121   139   137   ar
   122   139   138   ar
   123    35    36    2
   124   137   135   ar
   125    43    42   ar
   126   113   112    1
   127   138   136   ar
   128    40    42   ar
   129   135   134   ar
   130   136   134   ar
   131   134   133    1
   132   133   130    1
   133   132   131    2
   134   131   130    1
   135   130   129    1
