@<TRIPOS>MOLECULE
tmp/2vpxC00.pdb
 150 147 0 0 0
SMALL
GASTEIGER

@<TRIPOS>ATOM
      1  N        146.4480  154.5440   45.6900 N.3    13  TRP13      -0.1241
      2  CA       147.8900  154.6450   45.9430 C.3    13  TRP13       0.1605
      3  C        148.4280  153.2530   45.7970 C.2    13  TRP13       0.2264
      4  O        148.1370  152.3680   46.5960 O.2    13  TRP13      -0.2867
      5  CB       148.2160  155.1860   47.3450 C.3    13  TRP13       0.0550
      6  CG       148.0010  156.6480   47.4540 C.ar   13  TRP13       0.0003
      7  CD1      148.0350  157.5530   46.4300 C.ar   13  TRP13       0.0946
      8  CD2      147.6610  157.3820   48.6290 C.ar   13  TRP13       0.0152
      9  NE1      147.7210  158.8050   46.8920 N.ar   13  TRP13      -0.2442
     10  CE2      147.4890  158.7280   48.2400 C.ar   13  TRP13       0.0810
     11  CE3      147.4820  157.0360   49.9710 C.ar   13  TRP13       0.0012
     12  CZ2      147.1460  159.7260   49.1440 C.ar   13  TRP13       0.0191
     13  CZ3      147.1390  158.0300   50.8720 C.ar   13  TRP13       0.0001
     14  CH2      146.9740  159.3590   50.4520 C.ar   13  TRP13       0.0015
     15  N        153.4360  154.2200   44.9560 N.3    17  ASN17      -0.1240
     16  CA       153.4090  155.1900   45.9950 C.3    17  ASN17       0.1653
     17  C        153.8810  154.6680   47.3370 C.2    17  ASN17       0.2266
     18  O        154.4830  155.4080   48.1090 O.2    17  ASN17      -0.2867
     19  CB       152.0130  155.7230   46.1150 C.3    17  ASN17       0.1155
     20  CG       152.0200  157.1880   46.2180 C.2    17  ASN17       0.2627
     21  OD1      151.7670  157.8450   45.1060 O.2    17  ASN17      -0.2716
     22  ND2      152.2870  157.7420   47.2810 N.am   17  ASN17      -0.0877
     23  N        157.1760  155.2900   47.4610 N.3    20  HIS20      -0.1226
     24  CA       157.4370  156.6760   47.8190 C.3    20  HIS20       0.1752
     25  C        157.3630  156.7820   49.3420 C.2    20  HIS20       0.2596
     26  O        158.1720  157.4560   49.9740 O.2    20  HIS20      -0.2718
     27  CB       156.3970  157.5730   47.1860 C.3    20  HIS20       0.0759
     28  CG       156.2740  158.8900   47.8670 C.ar   20  HIS20       0.0818
     29  ND1      157.1880  159.9000   47.6920 N.ar   20  HIS20      -0.2268
     30  CD2      155.3740  159.3440   48.7680 C.ar   20  HIS20       0.1154
     31  CE1      156.8540  160.9210   48.4610 C.ar   20  HIS20       0.1986
     32  NE2      155.7570  160.6090   49.1220 N.ar   20  HIS20      -0.2212
     33  N        156.4000  156.0960   49.9290 N.am   21  PHE21      -0.1976
     34  CA       156.2600  156.1410   51.3630 C.3    21  PHE21       0.1639
     35  C        157.4510  155.5980   52.1020 C.2    21  PHE21       0.2290
     36  O        157.8450  156.1430   53.1050 O.2    21  PHE21      -0.2864
     37  CB       155.0100  155.4090   51.7850 C.3    21  PHE21       0.0560
     38  CG       153.8790  156.3140   52.0330 C.ar   21  PHE21      -0.0200
     39  CD1      153.1230  156.8060   50.9850 C.ar   21  PHE21      -0.0042
     40  CD2      153.5850  156.6960   53.3230 C.ar   21  PHE21      -0.0042
     41  CE1      152.0780  157.6710   51.2250 C.ar   21  PHE21      -0.0003
     42  CE2      152.5460  157.5580   53.5740 C.ar   21  PHE21      -0.0003
     43  CZ       151.7860  158.0490   52.5210 C.ar   21  PHE21      -0.0000
     44  N        161.5350  162.9050   45.3920 N.3    60  LEU60      -0.1245
     45  CA       160.7430  163.8110   44.5870 C.3    60  LEU60       0.1561
     46  C        160.6690  163.2410   43.1690 C.2    60  LEU60       0.2260
     47  O        159.6530  163.3750   42.4920 O.2    60  LEU60      -0.2867
     48  CB       161.3550  165.2060   44.5570 C.3    60  LEU60       0.0270
     49  CG       161.3630  165.9790   45.8700 C.3    60  LEU60       0.0019
     50  CD1      162.0700  167.2970   45.6540 C.3    60  LEU60       0.0001
     51  CD2      159.9570  166.2000   46.3550 C.3    60  LEU60       0.0001
     52  N        158.0220  160.7400   43.1300 N.3    63  LEU63      -0.1231
     53  CA       156.7120  161.3280   43.4540 C.3    63  LEU63       0.1693
     54  C        156.1900  161.9030   42.1450 C.2    63  LEU63       0.2592
     55  O        154.9860  161.9650   41.8840 O.2    63  LEU63      -0.2718
     56  CB       156.8410  162.4880   44.4340 C.3    63  LEU63       0.0284
     57  CG       156.5450  162.1890   45.8730 C.3    63  LEU63       0.0019
     58  CD1      157.1110  163.2480   46.7840 C.3    63  LEU63       0.0001
     59  CD2      155.1580  162.0040   45.9700 C.3    63  LEU63       0.0001
     60  N        157.1260  162.3380   41.3280 N.am   64  TRP64      -0.1976
     61  CA       156.7760  162.9300   40.0640 C.3    64  TRP64       0.1640
     62  C        156.6460  161.8760   38.9570 C.2    64  TRP64       0.2290
     63  O        155.7410  161.9410   38.1240 O.2    64  TRP64      -0.2864
     64  CB       157.8250  163.9750   39.7130 C.3    64  TRP64       0.0576
     65  CG       157.7430  164.3770   38.3260 C.ar   64  TRP64       0.0006
     66  CD1      156.9510  165.3420   37.7960 C.ar   64  TRP64       0.0946
     67  CD2      158.4230  163.7680   37.2420 C.ar   64  TRP64       0.0152
     68  NE1      157.0950  165.3710   36.4300 N.ar   64  TRP64      -0.2442
     69  CE2      157.9950  164.4100   36.0640 C.ar   64  TRP64       0.0810
     70  CE3      159.3540  162.7360   37.1490 C.ar   64  TRP64       0.0012
     71  CZ2      158.4660  164.0550   34.8040 C.ar   64  TRP64       0.0191
     72  CZ3      159.8220  162.3820   35.9010 C.ar   64  TRP64       0.0001
     73  CH2      159.3770  163.0420   34.7420 C.ar   64  TRP64       0.0015
     74  N        155.6320  159.0680   39.2080 N.3    66  GLU66      -0.1231
     75  CA       154.5210  158.1770   39.4560 C.3    66  GLU66       0.1699
     76  C        153.2300  158.9550   39.4160 C.2    66  GLU66       0.2592
     77  O        152.1370  158.4030   39.5590 O.2    66  GLU66      -0.2718
     78  CB       154.7450  157.4820   40.8010 C.3    66  GLU66       0.0402
     79  CG       153.5810  157.4790   41.7530 C.3    66  GLU66       0.1161
     80  CD       153.9650  157.9810   43.1250 C.2    66  GLU66       0.3649
     81  OE1      155.0810  157.6910   43.6050 O.co2  66  GLU66      -0.2457
     82  OE2      153.1370  158.6740   43.7290 O.co2  66  GLU66      -0.2457
     83  N        153.3620  160.2470   39.1750 N.am   67  SER67      -0.1952
     84  CA       152.1890  161.0710   39.1260 C.3    67  SER67       0.1924
     85  C        151.5140  161.0190   37.7810 C.2    67  SER67       0.2314
     86  O        152.1420  161.1940   36.7430 O.2    67  SER67      -0.2863
     87  CB       152.5280  162.5070   39.4750 C.3    67  SER67       0.2116
     88  OG       151.4670  163.3610   39.1140 O.3    67  SER67      -0.2180
     89  N        152.7940  170.2810   39.2090 N.3    75  HIS75      -0.1241
     90  CA       153.3430  170.3140   40.5610 C.3    75  HIS75       0.1621
     91  C        153.8440  171.6530   40.9370 C.2    75  HIS75       0.2264
     92  O        154.1420  171.9240   42.0970 O.2    75  HIS75      -0.2867
     93  CB       154.4710  169.3480   40.6990 C.3    75  HIS75       0.0745
     94  CG       154.0280  167.9430   40.5720 C.ar   75  HIS75       0.0817
     95  ND1      153.5240  167.4310   39.3970 N.ar   75  HIS75      -0.2268
     96  CD2      153.9940  166.9440   41.4740 C.ar   75  HIS75       0.1154
     97  CE1      153.2040  166.1670   39.5850 C.ar   75  HIS75       0.1986
     98  NE2      153.4800  165.8480   40.8360 N.ar   75  HIS75      -0.2212
     99  N        152.1250  173.2120   43.7810 N.3    78  LEU78      -0.1231
    100  CA       152.4420  172.7270   45.0970 C.3    78  LEU78       0.1693
    101  C        153.1830  173.8440   45.8100 C.2    78  LEU78       0.2592
    102  O        153.1000  174.0210   47.0330 O.2    78  LEU78      -0.2718
    103  CB       153.3830  171.5600   44.9250 C.3    78  LEU78       0.0284
    104  CG       153.1750  170.3250   45.7630 C.3    78  LEU78       0.0019
    105  CD1      151.7020  170.1490   46.0800 C.3    78  LEU78       0.0001
    106  CD2      153.7030  169.1600   44.9870 C.3    78  LEU78       0.0001
    107  N        153.9020  174.6010   44.9940 N.am   79  PHE79      -0.1976
    108  CA       154.7700  175.6530   45.4550 C.3    79  PHE79       0.1639
    109  C        154.3470  177.0550   45.2500 C.2    79  PHE79       0.2290
    110  O        155.0560  177.9700   45.6290 O.2    79  PHE79      -0.2864
    111  CB       156.1160  175.4330   44.8190 C.3    79  PHE79       0.0560
    112  CG       156.7140  174.1690   45.2410 C.ar   79  PHE79      -0.0200
    113  CD1      156.9220  173.1350   44.3450 C.ar   79  PHE79      -0.0042
    114  CD2      157.0190  173.9890   46.5740 C.ar   79  PHE79      -0.0042
    115  CE1      157.4310  171.9310   44.7850 C.ar   79  PHE79      -0.0003
    116  CE2      157.5230  172.8030   47.0260 C.ar   79  PHE79      -0.0003
    117  CZ       157.7330  171.7630   46.1330 C.ar   79  PHE79      -0.0000
    118  N        150.2280  166.6750   52.2970 N.3    88  ILE88      -0.1245
    119  CA       151.0820  166.5830   51.1310 C.3    88  ILE88       0.1561
    120  C        151.6790  167.9180   50.8130 C.2    88  ILE88       0.2260
    121  O        152.7510  168.0010   50.2330 O.2    88  ILE88      -0.2867
    122  CB       150.3210  166.0830   49.9070 C.3    88  ILE88       0.0252
    123  CG1      149.7880  164.6820   50.1900 C.3    88  ILE88       0.0019
    124  CG2      151.2470  166.0500   48.6900 C.3    88  ILE88       0.0019
    125  CD1      150.7930  163.6050   49.9650 C.3    88  ILE88       0.0001
    126  N        155.6350  168.6040   50.6880 N.3    92  ALA92      -0.1245
    127  CA       156.3060  169.1620   49.5230 C.3    92  ALA92       0.1562
    128  C        157.2490  170.2630   49.9290 C.2    92  ALA92       0.2260
    129  O        158.3500  170.3940   49.4060 O.2    92  ALA92      -0.2867
    130  CB       155.2880  169.6940   48.5400 C.3    92  ALA92       0.0290
    131  N        160.4410  168.7340   52.4290 N.3    95  LEU95      -0.1245
    132  CA       161.4510  168.0670   51.6200 C.3    95  LEU95       0.1561
    133  C        162.1260  169.1280   50.7570 C.2    95  LEU95       0.2260
    134  O        163.3420  169.3210   50.8300 O.2    95  LEU95      -0.2867
    135  CB       160.7900  167.0340   50.6980 C.3    95  LEU95       0.0270
    136  CG       159.9620  165.8920   51.3010 C.3    95  LEU95       0.0019
    137  CD1      158.9050  165.4210   50.3050 C.3    95  LEU95       0.0001
    138  CD2      160.8750  164.7480   51.7000 C.3    95  LEU95       0.0001
    139  N        154.7760  164.3310   57.8060 N.3   129  TYR129     -0.1241
    140  CA       153.6690  164.4140   56.8830 C.3   129  TYR129      0.1605
    141  C        153.0800  163.1190   56.3460 C.2   129  TYR129      0.2264
    142  O        151.8750  163.0510   56.0880 O.2   129  TYR129     -0.2867
    143  CB       154.0280  165.3880   55.7660 C.3   129  TYR129      0.0534
    144  CG       154.4000  164.7630   54.4650 C.ar  129  TYR129     -0.0201
    145  CD1      153.4190  164.3970   53.5460 C.ar  129  TYR129     -0.0009
    146  CD2      155.7340  164.5340   54.1420 C.ar  129  TYR129     -0.0009
    147  CE1      153.7590  163.8170   52.3360 C.ar  129  TYR129      0.0417
    148  CE2      156.0820  163.9590   52.9470 C.ar  129  TYR129      0.0417
    149  CZ       155.0970  163.6050   52.0630 C.ar  129  TYR129      0.1957
    150  OH       155.4940  162.9900   50.9290 O.3   129  TYR129     -0.2866
@<TRIPOS>BOND
     1    73    71   ar
     2    73    72   ar
     3    71    69   ar
     4    72    70   ar
     5    69    68   ar
     6    69    67   ar
     7    68    66   ar
     8    86    85    2
     9    70    67   ar
    10    67    65   ar
    11    85    84    1
    12    66    65   ar
    13    63    62    2
    14    65    64    1
    15    62    61    1
    16    88    87    1
    17    84    83    1
    18    84    87    1
    19    83    76   am
    20    74    75    1
    21    89    90    1
    22    95    97   ar
    23    95    94   ar
    24    76    75    1
    25    76    77    2
    26    75    78    1
    27    97    98   ar
    28    64    61    1
    29    61    60    1
    30    90    93    1
    31    90    91    1
    32    94    93    1
    33    94    96   ar
    34    78    79    1
    35    98    96   ar
    36    91    92    2
    37    60    54   am
    38    79    80    1
    39    55    54    2
    40    54    53    1
    41    47    46    2
    42    80    81   ar
    43    80    82   ar
    44    52    53    1
    45    46    45    1
    46    53    56    1
    47    99   100    1
    48   113   115   ar
    49   113   112   ar
    50    56    57    1
    51    48    45    1
    52    48    49    1
    53    45    44    1
    54   115   117   ar
    55   111   112    1
    56   111   108    1
    57   103   100    1
    58   103   104    1
    59    15    16    1
    60   106   104    1
    61   107   108    1
    62   107   101   am
    63   100   101    1
    64    21    20    2
    65   112   114   ar
    66   109   108    1
    67   109   110    2
    68    50    49    1
    69     1     2    1
    70   104   105    1
    71     3     2    1
    72     3     4    2
    73   101   102    2
    74    49    51    1
    75    57    59    1
    76    57    58    1
    77     2     5    1
    78    16    19    1
    79    16    17    1
    80    19    20    1
    81   117   116   ar
    82    20    22   am
    83     7     9   ar
    84     7     6   ar
    85   114   116   ar
    86     9    10   ar
    87    27    24    1
    88    27    28    1
    89    17    18    2
    90     5     6    1
    91     6     8   ar
    92    23    24    1
    93    29    28   ar
    94    29    31   ar
    95    24    25    1
    96    28    30   ar
    97    10     8   ar
    98    10    12   ar
    99    31    32   ar
   100   130   127    1
   101     8    11   ar
   102   124   122    1
   103    30    32   ar
   104    12    14   ar
   105    25    33   am
   106    25    26    2
   107   129   128    2
   108   127   128    1
   109   127   126    1
   110   122   123    1
   111   122   119    1
   112    33    34    1
   113   125   123    1
   114    11    13   ar
   115   121   120    2
   116   137   136    1
   117    14    13   ar
   118   135   136    1
   119   135   132    1
   120   133   134    2
   121   133   132    1
   122   120   119    1
   123   150   149    1
   124    39    41   ar
   125    39    38   ar
   126   119   118    1
   127    41    43   ar
   128   136   138    1
   129    34    37    1
   130    34    35    1
   131   132   131    1
   132    37    38    1
   133    38    40   ar
   134   149   147   ar
   135   149   148   ar
   136    35    36    2
   137   147   145   ar
   138    43    42   ar
   139   148   146   ar
   140    40    42   ar
   141   145   144   ar
   142   146   144   ar
   143   144   143    1
   144   143   140    1
   145   142   141    2
   146   141   140    1
   147   140   139    1
