@<TRIPOS>MOLECULE
tmp/2vpyC00.pdb
 130 123 0 0 0
SMALL
GASTEIGER

@<TRIPOS>ATOM
      1  N        149.6440  158.5750   46.3840 N.3    13  TRP13      -0.1241
      2  CA       151.1060  158.6570   46.6530 C.3    13  TRP13       0.1605
      3  C        151.6590  157.2370   46.4990 C.2    13  TRP13       0.2264
      4  O        151.3610  156.3510   47.3000 O.2    13  TRP13      -0.2867
      5  CB       151.4310  159.2300   48.0630 C.3    13  TRP13       0.0550
      6  CG       151.2130  160.7330   48.1840 C.ar   13  TRP13       0.0003
      7  CD1      151.2500  161.6520   47.1630 C.ar   13  TRP13       0.0946
      8  CD2      150.8650  161.4800   49.3740 C.ar   13  TRP13       0.0152
      9  NE1      150.9380  162.9070   47.6360 N.ar   13  TRP13      -0.2442
     10  CE2      150.6950  162.8380   48.9820 C.ar   13  TRP13       0.0810
     11  CE3      150.6750  161.1360   50.7270 C.ar   13  TRP13       0.0012
     12  CZ2      150.3440  163.8570   49.8960 C.ar   13  TRP13       0.0191
     13  CZ3      150.3270  162.1500   51.6480 C.ar   13  TRP13       0.0001
     14  CH2      150.1630  163.4960   51.2190 C.ar   13  TRP13       0.0015
     15  N        156.7990  158.2320   45.6700 N.3    17  ASN17      -0.1240
     16  CA       156.7470  159.1990   46.7400 C.3    17  ASN17       0.1653
     17  C        157.2810  158.6950   48.0610 C.2    17  ASN17       0.2266
     18  O        157.9570  159.4550   48.7890 O.2    17  ASN17      -0.2867
     19  CB       155.3270  159.6670   46.9110 C.3    17  ASN17       0.1155
     20  CG       155.1220  161.0910   46.5100 C.2    17  ASN17       0.2627
     21  OD1      154.5390  161.2980   45.3170 O.2    17  ASN17      -0.2716
     22  ND2      155.5320  162.0110   47.2220 N.am   17  ASN17      -0.0877
     23  N        160.6030  159.3220   48.2330 N.3    20  HIS20      -0.1226
     24  CA       160.8520  160.7240   48.6000 C.3    20  HIS20       0.1752
     25  C        160.7840  160.8310   50.1320 C.2    20  HIS20       0.2596
     26  O        161.6020  161.4990   50.7660 O.2    20  HIS20      -0.2718
     27  CB       159.8100  161.6870   47.9700 C.3    20  HIS20       0.0759
     28  CG       159.5450  162.9260   48.7530 C.ar   20  HIS20       0.0818
     29  ND1      159.9030  164.1780   48.3210 N.ar   20  HIS20      -0.2268
     30  CD2      158.9830  163.0950   49.9580 C.ar   20  HIS20       0.1154
     31  CE1      159.5830  165.0690   49.2370 C.ar   20  HIS20       0.1986
     32  NE2      159.0210  164.4340   50.2430 N.ar   20  HIS20      -0.2212
     33  N        159.8170  160.1430   50.7350 N.am   21  PHE21      -0.1976
     34  CA       159.6680  160.1630   52.1770 C.3    21  PHE21       0.1639
     35  C        160.8690  159.6160   52.9370 C.2    21  PHE21       0.2290
     36  O        161.2500  160.1690   53.9400 O.2    21  PHE21      -0.2864
     37  CB       158.3820  159.4540   52.5940 C.3    21  PHE21       0.0560
     38  CG       157.2260  160.3760   52.8470 C.ar   21  PHE21      -0.0200
     39  CD1      156.4590  160.8760   51.7940 C.ar   21  PHE21      -0.0042
     40  CD2      156.9130  160.7660   54.1500 C.ar   21  PHE21      -0.0042
     41  CE1      155.3920  161.7570   52.0330 C.ar   21  PHE21      -0.0003
     42  CE2      155.8570  161.6420   54.4080 C.ar   21  PHE21      -0.0003
     43  CZ       155.0930  162.1410   53.3450 C.ar   21  PHE21      -0.0000
     44  N        165.0550  167.1000   46.1230 N.3    60  LEU60      -0.1245
     45  CA       164.2770  168.0270   45.3050 C.3    60  LEU60       0.1561
     46  C        164.2030  167.4520   43.8700 C.2    60  LEU60       0.2260
     47  O        163.1810  167.5850   43.1950 O.2    60  LEU60      -0.2867
     48  CB       164.8810  169.4500   45.2960 C.3    60  LEU60       0.0270
     49  CG       164.8810  170.2650   46.6020 C.3    60  LEU60       0.0019
     50  CD1      165.6190  171.6020   46.3970 C.3    60  LEU60       0.0001
     51  CD2      163.4450  170.4980   47.0790 C.3    60  LEU60       0.0001
     52  N        161.4700  164.8820   43.8230 N.3    63  LEU63      -0.1245
     53  CA       160.1530  165.5060   44.1380 C.3    63  LEU63       0.1561
     54  C        159.6240  166.0910   42.8190 C.2    63  LEU63       0.2260
     55  O        158.4120  166.1530   42.5540 O.2    63  LEU63      -0.2867
     56  CB       160.2600  166.6770   45.1510 C.3    63  LEU63       0.0270
     57  CG       159.9280  166.3950   46.6160 C.3    63  LEU63       0.0019
     58  CD1      160.5190  167.4650   47.5450 C.3    63  LEU63       0.0001
     59  CD2      158.4040  166.2930   46.8060 C.3    63  LEU63       0.0001
     60  N        159.0440  163.1620   39.8290 N.3    66  GLU66      -0.1231
     61  CA       157.9020  162.2880   40.0870 C.3    66  GLU66       0.1699
     62  C        156.5960  163.0800   40.0460 C.2    66  GLU66       0.2592
     63  O        155.4960  162.5170   40.1860 O.2    66  GLU66      -0.2718
     64  CB       158.1240  161.5700   41.4380 C.3    66  GLU66       0.0402
     65  CG       156.9530  161.5500   42.4290 C.3    66  GLU66       0.1161
     66  CD       157.3230  162.0730   43.8230 C.2    66  GLU66       0.3649
     67  OE1      158.4460  161.7890   44.2990 O.co2  66  GLU66      -0.2457
     68  OE2      156.4850  162.7600   44.4400 O.co2  66  GLU66      -0.2457
     69  N        156.7050  164.3850   39.8070 N.am   67  SER67      -0.1952
     70  CA       155.5230  165.2350   39.7380 C.3    67  SER67       0.1924
     71  C        154.8360  165.1930   38.3900 C.2    67  SER67       0.2314
     72  O        155.4670  165.3570   37.3380 O.2    67  SER67      -0.2863
     73  CB       155.8610  166.6930   40.1010 C.3    67  SER67       0.2116
     74  OG       154.8070  167.5690   39.7470 O.3    67  SER67      -0.2180
     75  N        156.1600  174.6930   39.8460 N.3    75  HIS75      -0.1241
     76  CA       156.7360  174.7230   41.1870 C.3    75  HIS75       0.1621
     77  C        157.2380  176.0940   41.5830 C.2    75  HIS75       0.2264
     78  O        157.5280  176.3700   42.7520 O.2    75  HIS75      -0.2867
     79  CB       157.8490  173.6930   41.3360 C.3    75  HIS75       0.0745
     80  CG       157.3960  172.2840   41.2140 C.ar   75  HIS75       0.0817
     81  ND1      156.9010  171.7620   40.0490 N.ar   75  HIS75      -0.2268
     82  CD2      157.3730  171.2820   42.1120 C.ar   75  HIS75       0.1154
     83  CE1      156.5880  170.4960   40.2320 C.ar   75  HIS75       0.1986
     84  NE2      156.8660  170.1780   41.4800 N.ar   75  HIS75      -0.2212
     85  N        155.4620  177.6950   44.4770 N.3    78  LEU78      -0.1245
     86  CA       155.8020  177.2090   45.8020 C.3    78  LEU78       0.1561
     87  C        156.5650  178.3470   46.5360 C.2    78  LEU78       0.2260
     88  O        156.4730  178.5180   47.7600 O.2    78  LEU78      -0.2867
     89  CB       156.7320  176.0070   45.6380 C.3    78  LEU78       0.0270
     90  CG       156.5310  174.7340   46.4690 C.3    78  LEU78       0.0019
     91  CD1      155.0460  174.5540   46.7960 C.3    78  LEU78       0.0001
     92  CD2      157.0780  173.5180   45.7070 C.3    78  LEU78       0.0001
     93  N        153.5190  171.0080   53.1150 N.3    88  ILE88      -0.1245
     94  CA       154.3700  170.9240   51.9340 C.3    88  ILE88       0.1561
     95  C        154.9880  172.2800   51.6060 C.2    88  ILE88       0.2260
     96  O        156.0650  172.3570   51.0270 O.2    88  ILE88      -0.2867
     97  CB       153.6080  170.3820   50.6900 C.3    88  ILE88       0.0252
     98  CG1      153.0740  168.9750   50.9700 C.3    88  ILE88       0.0019
     99  CG2      154.5520  170.3490   49.4660 C.3    88  ILE88       0.0019
    100  CD1      154.0780  167.8510   50.7270 C.3    88  ILE88       0.0001
    101  N        159.0600  172.9560   51.4980 N.3    92  ALA92      -0.1245
    102  CA       159.7350  173.5440   50.3340 C.3    92  ALA92       0.1562
    103  C        160.6880  174.6670   50.7310 C.2    92  ALA92       0.2260
    104  O        161.7940  174.7880   50.1960 O.2    92  ALA92      -0.2867
    105  CB       158.6970  174.0730   49.3160 C.3    92  ALA92       0.0290
    106  N        163.9640  173.1010   53.2700 N.3    95  LEU95      -0.1245
    107  CA       164.9730  172.4180   52.4410 C.3    95  LEU95       0.1561
    108  C        165.6760  173.4920   51.5710 C.2    95  LEU95       0.2260
    109  O        166.8980  173.6800   51.6500 O.2    95  LEU95      -0.2867
    110  CB       164.2980  171.3500   51.5290 C.3    95  LEU95       0.0270
    111  CG       163.4640  170.1840   52.1140 C.3    95  LEU95       0.0019
    112  CD1      162.3820  169.7120   51.1200 C.3    95  LEU95       0.0001
    113  CD2      164.3720  169.0150   52.5260 C.3    95  LEU95       0.0001
    114  N        158.1170  168.5670   58.7160 N.3   129  TYR129     -0.1241
    115  CA       157.0250  168.6480   57.7670 C.3   129  TYR129      0.1605
    116  C        156.4100  167.3370   57.2230 C.2   129  TYR129      0.2264
    117  O        155.2130  167.2850   56.9660 O.2   129  TYR129     -0.2867
    118  CB       157.3800  169.6410   56.6390 C.3   129  TYR129      0.0534
    119  CG       157.7600  169.0210   55.3160 C.ar  129  TYR129     -0.0201
    120  CD1      156.7830  168.6530   54.3840 C.ar  129  TYR129     -0.0009
    121  CD2      159.0980  168.7880   54.9940 C.ar  129  TYR129     -0.0009
    122  CE1      157.1270  168.0650   53.1580 C.ar  129  TYR129      0.0417
    123  CE2      159.4570  168.1950   53.7640 C.ar  129  TYR129      0.0417
    124  CZ       158.4690  167.8370   52.8540 C.ar  129  TYR129      0.1957
    125  OH       158.8180  167.2470   51.6630 O.3   129  TYR129     -0.2866
    126  N        152.5850  166.3660   57.0530 N.3   133  ALA133     -0.1245
    127  CA       151.9560  166.2850   55.7250 C.3   133  ALA133      0.1562
    128  C        150.9550  165.1140   55.7760 C.2   133  ALA133      0.2260
    129  O        149.9310  165.1210   55.0770 O.2   133  ALA133     -0.2867
    130  CB       153.0060  166.0560   54.6020 C.3   133  ALA133      0.0290
@<TRIPOS>BOND
     1    72    71    2
     2    71    70    1
     3    70    69    1
     4    70    73    1
     5    74    73    1
     6    69    62   am
     7    60    61    1
     8    75    76    1
     9    62    61    1
    10    62    63    2
    11    81    83   ar
    12    81    80   ar
    13    61    64    1
    14    83    84   ar
    15    76    79    1
    16    76    77    1
    17    80    79    1
    18    80    82   ar
    19    64    65    1
    20    84    82   ar
    21    77    78    2
    22    65    66    1
    23    55    54    2
    24    54    53    1
    25    47    46    2
    26    66    67   ar
    27    66    68   ar
    28    52    53    1
    29    46    45    1
    30    53    56    1
    31    85    86    1
    32    56    57    1
    33    48    45    1
    34    48    49    1
    35    45    44    1
    36    21    20    2
    37    89    86    1
    38    89    90    1
    39    15    16    1
    40    92    90    1
    41    86    87    1
    42     1     2    1
    43    50    49    1
    44    90    91    1
    45     3     2    1
    46     3     4    2
    47    20    19    1
    48    20    22   am
    49    87    88    2
    50    49    51    1
    51    57    59    1
    52    57    58    1
    53     2     5    1
    54    16    19    1
    55    16    17    1
    56     7     9   ar
    57     7     6   ar
    58     9    10   ar
    59    27    24    1
    60    27    28    1
    61    17    18    2
    62     5     6    1
    63     6     8   ar
    64    23    24    1
    65    29    28   ar
    66    29    31   ar
    67    24    25    1
    68    28    30   ar
    69    10     8   ar
    70    10    12   ar
    71    31    32   ar
    72   105   102    1
    73     8    11   ar
    74    99    97    1
    75    12    14   ar
    76    30    32   ar
    77    25    33   am
    78    25    26    2
    79   104   103    2
    80   102   103    1
    81   102   101    1
    82    97    98    1
    83    97    94    1
    84    11    13   ar
    85   100    98    1
    86    33    34    1
    87    96    95    2
    88   112   111    1
    89    14    13   ar
    90   110   111    1
    91   110   107    1
    92   108   109    2
    93   108   107    1
    94    95    94    1
    95   125   124    1
    96    39    41   ar
    97    39    38   ar
    98    94    93    1
    99    41    43   ar
   100   111   113    1
   101    34    37    1
   102    34    35    1
   103   107   106    1
   104    37    38    1
   105    38    40   ar
   106   124   122   ar
   107   124   123   ar
   108    35    36    2
   109   122   120   ar
   110    43    42   ar
   111   123   121   ar
   112    40    42   ar
   113   120   119   ar
   114   130   127    1
   115   121   119   ar
   116   129   128    2
   117   119   118    1
   118   127   128    1
   119   127   126    1
   120   118   115    1
   121   117   116    2
   122   116   115    1
   123   115   114    1
