@<TRIPOS>MOLECULE
tmp/2vq3A00.pdb
 193 186 0 0 0
SMALL
GASTEIGER

@<TRIPOS>ATOM
      1  N         39.6000  -26.7640   59.4590 N.3     7  GLY7       -0.1210
      2  CA        39.8610  -25.6490   58.5900 C.3     7  GLY7        0.1956
      3  C         38.8950  -24.4880   58.7890 C.2     7  GLY7        0.2613
      4  O         37.9040  -24.5980   59.4770 O.2     7  GLY7       -0.2717
      5  N         39.2610  -23.3360   58.2840 N.am    8  SER8       -0.1938
      6  CA        38.6350  -22.1120   58.7350 C.3     8  SER8        0.2055
      7  C         38.2730  -21.1960   57.5650 C.2     8  SER8        0.2644
      8  O         37.8230  -20.0920   57.7650 O.2     8  SER8       -0.2714
      9  CB        39.4470  -21.4090   59.8040 C.3     8  SER8        0.2130
     10  OG        40.2500  -20.4130   59.2630 O.3     8  SER8       -0.2179
     11  N         38.4110  -21.7070   56.3500 N.am    9  GLY9       -0.1939
     12  CA        38.1740  -20.9270   55.1570 C.3     9  GLY9        0.2014
     13  C         36.7400  -20.8480   54.6740 C.2     9  GLY9        0.2639
     14  O         35.8190  -21.1980   55.3650 O.2     9  GLY9       -0.2714
     15  N         36.5870  -20.3830   53.4510 N.am   10  ASP10      -0.1957
     16  CA        35.2660  -20.1840   52.8560 C.3    10  ASP10       0.1840
     17  C         34.4660  -21.4700   52.8100 C.2    10  ASP10       0.2622
     18  O         33.2660  -21.4890   53.1070 O.2    10  ASP10      -0.2715
     19  CB        35.3820  -19.5760   51.4530 C.3    10  ASP10       0.1450
     20  CG        35.7390  -18.0810   51.4780 C.2    10  ASP10       0.3671
     21  OD1       35.4860  -17.3930   52.4880 O.co2  10  ASP10      -0.2456
     22  OD2       36.2770  -17.5810   50.4740 O.co2  10  ASP10      -0.2456
     23  N         35.1260  -22.5580   52.4490 N.am   11  PHE11      -0.1960
     24  CA        34.4460  -23.8530   52.4030 C.3    11  PHE11       0.1771
     25  C         34.0590  -24.3850   53.7840 C.2    11  PHE11       0.2619
     26  O         32.9030  -24.7960   53.9750 O.2    11  PHE11      -0.2715
     27  CB        35.2610  -24.8780   51.6460 C.3    11  PHE11       0.0574
     28  CG        34.4270  -26.0180   51.1340 C.ar   11  PHE11      -0.0200
     29  CD1       33.6700  -25.8740   49.9930 C.ar   11  PHE11      -0.0042
     30  CD2       34.3780  -27.2170   51.8060 C.ar   11  PHE11      -0.0042
     31  CE1       32.8920  -26.9080   49.5260 C.ar   11  PHE11      -0.0003
     32  CE2       33.5870  -28.2690   51.3040 C.ar   11  PHE11      -0.0003
     33  CZ        32.8640  -28.0960   50.1950 C.ar   11  PHE11      -0.0000
     34  N         34.9910  -24.3590   54.7230 N.am   12  ALA12      -0.1977
     35  CA        34.7130  -24.7610   56.1030 C.3    12  ALA12       0.1597
     36  C         33.4740  -24.0000   56.5710 C.2    12  ALA12       0.2287
     37  O         32.6000  -24.5630   57.1630 O.2    12  ALA12      -0.2864
     38  CB        35.9050  -24.5350   56.9970 C.3    12  ALA12       0.0319
     39  N         40.4600  -25.0640   64.2120 N.3    30  SER30      -0.1202
     40  CA        41.2420  -23.9930   63.6280 C.3    30  SER30       0.2020
     41  C         42.5190  -23.7770   64.4280 C.2    30  SER30       0.2619
     42  O         42.5400  -23.9570   65.6390 O.2    30  SER30      -0.2717
     43  CB        40.4300  -22.6940   63.6630 C.3    30  SER30       0.2103
     44  OG        41.2340  -21.5600   63.3560 O.3    30  SER30      -0.2182
     45  N         43.5620  -23.3490   63.7380 N.am   31  ARG31      -0.1965
     46  CA        44.8100  -22.9650   64.3670 C.3    31  ARG31       0.1729
     47  C         44.6710  -21.6790   65.1820 C.2    31  ARG31       0.2616
     48  O         45.4390  -21.4610   66.1120 O.2    31  ARG31      -0.2715
     49  CB        45.8850  -22.7750   63.3060 C.3    31  ARG31       0.0348
     50  CG        46.3220  -24.0520   62.6120 C.3    31  ARG31       0.0492
     51  CD        47.3280  -23.7190   61.5080 C.3    31  ARG31       0.2205
     52  NE        46.6970  -22.9530   60.4250 N.pl3  31  ARG31      -0.0865
     53  CZ        47.3370  -22.1430   59.5770 C.cat  31  ARG31       0.5346
     54  NH1       48.6500  -21.9630   59.6550 N.pl3  31  ARG31       0.1354
     55  NH2       46.6490  -21.5050   58.6380 N.pl3  31  ARG31       0.1354
     56  N         43.7210  -20.8160   64.8220 N.am   32  ASN32      -0.1972
     57  CA        43.4750  -19.5750   65.5920 C.3    32  ASN32       0.1688
     58  C         41.9780  -19.3840   65.7890 C.2    32  ASN32       0.2292
     59  O         41.3490  -18.5610   65.1180 O.2    32  ASN32      -0.2864
     60  CB        44.0860  -18.3460   64.9090 C.3    32  ASN32       0.1181
     61  CG        44.1970  -17.1350   65.8550 C.2    32  ASN32       0.2629
     62  OD1       43.3370  -16.8960   66.7200 O.2    32  ASN32      -0.2716
     63  ND2       45.2680  -16.3700   65.6910 N.am   32  ASN32      -0.0877
     64  N         39.0620  -16.8840   64.0790 N.3    36  THR36      -0.1218
     65  CA        38.2260  -17.6390   63.1580 C.3    36  THR36       0.1862
     66  C         36.7570  -17.6820   63.5700 C.2    36  THR36       0.2287
     67  O         35.8690  -17.5510   62.7430 O.2    36  THR36      -0.2866
     68  CB        38.7780  -19.0550   63.0560 C.3    36  THR36       0.1770
     69  OG1       39.9900  -19.0080   62.3170 O.3    36  THR36      -0.2211
     70  CG2       37.8050  -19.9610   62.3600 C.3    36  THR36       0.0375
     71  N         42.4870  -27.3130   66.9960 N.3    49  GLN49      -0.1245
     72  CA        42.3990  -28.5390   66.1820 C.3    49  GLN49       0.1566
     73  C         42.2740  -29.7970   67.0380 C.2    49  GLN49       0.2260
     74  O         41.3970  -30.6270   66.8250 O.2    49  GLN49      -0.2867
     75  CB        43.6090  -28.6740   65.2710 C.3    49  GLN49       0.0367
     76  CG        43.5840  -27.7290   64.1270 C.3    49  GLN49       0.0905
     77  CD        44.8280  -27.8350   63.2650 C.2    49  GLN49       0.2608
     78  OE1       45.8980  -28.1990   63.7470 O.2    49  GLN49      -0.2717
     79  NE2       44.6970  -27.5040   61.9940 N.am   49  GLN49      -0.0878
     80  N         38.6410  -29.6370   55.4470 N.3    62  ALA62      -0.1231
     81  CA        38.4380  -28.5010   54.5690 C.3    62  ALA62       0.1694
     82  C         39.6870  -27.6180   54.5420 C.2    62  ALA62       0.2592
     83  O         39.6370  -26.4410   54.8690 O.2    62  ALA62      -0.2718
     84  CB        37.1980  -27.6900   55.0040 C.3    62  ALA62       0.0304
     85  N         40.8050  -28.2240   54.1540 N.am   63  VAL63      -0.1966
     86  CA        42.0820  -27.5330   53.9760 C.3    63  VAL63       0.1727
     87  C         42.6460  -28.0020   52.6490 C.2    63  VAL63       0.2616
     88  O         42.1600  -28.9750   52.0900 O.2    63  VAL63      -0.2715
     89  CB        43.0430  -27.8270   55.1550 C.3    63  VAL63       0.0290
     90  CG1       42.2940  -27.6370   56.4850 C.3    63  VAL63       0.0023
     91  CG2       43.6290  -29.2260   55.0720 C.3    63  VAL63       0.0023
     92  N         43.6580  -27.3170   52.1300 N.am   64  PHE64      -0.1974
     93  CA        44.2450  -27.7110   50.8550 C.3    64  PHE64       0.1639
     94  C         45.2000  -28.8920   51.0360 C.2    64  PHE64       0.2290
     95  O         45.6860  -29.1430   52.1470 O.2    64  PHE64      -0.2864
     96  CB        44.9210  -26.5220   50.1850 C.3    64  PHE64       0.0560
     97  CG        43.9390  -25.5600   49.5900 C.ar   64  PHE64      -0.0200
     98  CD1       43.4080  -25.7840   48.3180 C.ar   64  PHE64      -0.0042
     99  CD2       43.4890  -24.4810   50.3180 C.ar   64  PHE64      -0.0042
    100  CE1       42.4760  -24.9030   47.7780 C.ar   64  PHE64      -0.0003
    101  CE2       42.5630  -23.6010   49.7820 C.ar   64  PHE64      -0.0003
    102  CZ        42.0540  -23.8110   48.5230 C.ar   64  PHE64      -0.0000
    103  N         48.4800  -28.8460   52.8850 N.3    67  HIS67      -0.1241
    104  CA        48.3970  -28.7520   54.3490 C.3    67  HIS67       0.1621
    105  C         47.9510  -30.0400   55.0580 C.2    67  HIS67       0.2264
    106  O         47.8740  -30.0880   56.2880 O.2    67  HIS67      -0.2867
    107  CB        47.5090  -27.5720   54.7180 C.3    67  HIS67       0.0745
    108  CG        48.0560  -26.2660   54.2210 C.ar   67  HIS67       0.0817
    109  ND1       47.2710  -25.2890   53.6440 N.ar   67  HIS67      -0.2268
    110  CD2       49.3300  -25.8140   54.1480 C.ar   67  HIS67       0.1154
    111  CE1       48.0370  -24.2840   53.2600 C.ar   67  HIS67       0.1986
    112  NE2       49.2890  -24.5730   53.5650 N.ar   67  HIS67      -0.2212
    113  N         50.3990  -31.4020   57.6800 N.3    70  SER70      -0.1202
    114  CA        50.4330  -30.6010   58.9190 C.3    70  SER70       0.2020
    115  C         49.4270  -31.0890   59.9670 C.2    70  SER70       0.2618
    116  O         49.5050  -30.6920   61.1200 O.2    70  SER70      -0.2717
    117  CB        50.2050  -29.1080   58.6450 C.3    70  SER70       0.2103
    118  OG        48.8500  -28.8410   58.3360 O.3    70  SER70      -0.2182
    119  N         48.4970  -31.9490   59.5660 N.am   71  LEU71      -0.1979
    120  CA        47.4910  -32.5000   60.4870 C.3    71  LEU71       0.1596
    121  C         47.9300  -33.8040   61.1450 C.2    71  LEU71       0.2287
    122  O         47.1790  -34.3900   61.9320 O.2    71  LEU71      -0.2864
    123  CB        46.1610  -32.7230   59.7590 C.3    71  LEU71       0.0297
    124  CG        45.5850  -31.5200   59.0160 C.3    71  LEU71       0.0022
    125  CD1       44.4210  -31.9530   58.1490 C.3    71  LEU71       0.0001
    126  CD2       45.1600  -30.4420   59.9830 C.3    71  LEU71       0.0001
    127  N         37.1570  -33.2540   50.7130 N.3    86  VAL86      -0.1231
    128  CA        36.2930  -32.3970   49.9060 C.3    86  VAL86       0.1692
    129  C         37.0430  -31.6510   48.8070 C.2    86  VAL86       0.2593
    130  O         36.4470  -30.8650   48.0960 O.2    86  VAL86      -0.2718
    131  CB        35.6050  -31.3410   50.8010 C.3    86  VAL86       0.0266
    132  CG1       34.7580  -32.0400   51.8930 C.3    86  VAL86       0.0020
    133  CG2       36.6500  -30.4600   51.4310 C.3    86  VAL86       0.0020
    134  N         38.3390  -31.8900   48.6670 N.am   87  SER87      -0.1938
    135  CA        39.1820  -31.0640   47.8090 C.3    87  SER87       0.2055
    136  C         38.7610  -31.0740   46.3240 C.2    87  SER87       0.2643
    137  O         38.3640  -32.0910   45.7730 O.2    87  SER87      -0.2714
    138  CB        40.6650  -31.4560   47.9550 C.3    87  SER87       0.2130
    139  OG        40.9000  -32.8220   47.5960 O.3    87  SER87      -0.2179
    140  N         38.8740  -29.9120   45.6850 N.am   88  ASN88      -0.1971
    141  CA        38.5720  -29.7610   44.2770 C.3    88  ASN88       0.1688
    142  C         39.8640  -29.3100   43.6130 C.2    88  ASN88       0.2292
    143  O         40.0910  -28.1180   43.4810 O.2    88  ASN88      -0.2864
    144  CB        37.4600  -28.7170   44.1320 C.3    88  ASN88       0.1181
    145  CG        37.2520  -28.2460   42.7130 C.2    88  ASN88       0.2629
    146  OD1       37.2940  -29.0260   41.7510 O.2    88  ASN88      -0.2716
    147  ND2       37.0210  -26.9510   42.5700 N.am   88  ASN88      -0.0877
    148  N         31.7300  -33.9950   48.1570 N.3   118  PHE118     -0.1227
    149  CA        31.4390  -32.5330   48.1610 C.3   118  PHE118      0.1736
    150  C         32.3650  -31.6680   47.3140 C.2   118  PHE118      0.2595
    151  O         32.2020  -30.4500   47.2520 O.2   118  PHE118     -0.2718
    152  CB        31.2950  -31.9750   49.5820 C.3   118  PHE118      0.0547
    153  CG        30.0670  -32.4600   50.2810 C.ar  118  PHE118     -0.0202
    154  CD1       28.8400  -31.8560   50.0440 C.ar  118  PHE118     -0.0042
    155  CD2       30.1280  -33.5420   51.1490 C.ar  118  PHE118     -0.0042
    156  CE1       27.6710  -32.3350   50.6720 C.ar  118  PHE118     -0.0003
    157  CE2       28.9840  -34.0230   51.7770 C.ar  118  PHE118     -0.0003
    158  CZ        27.7530  -33.4040   51.5450 C.ar  118  PHE118     -0.0000
    159  N         33.2950  -32.2910   46.6140 N.am  119  ASN119     -0.1974
    160  CA        34.2220  -31.5480   45.7760 C.3   119  ASN119      0.1688
    161  C         33.5740  -30.7790   44.6340 C.2   119  ASN119      0.2292
    162  O         34.1490  -29.8220   44.1600 O.2   119  ASN119     -0.2864
    163  CB        35.3510  -32.4410   45.2360 C.3   119  ASN119      0.1181
    164  CG        34.8460  -33.6260   44.4230 C.2   119  ASN119      0.2629
    165  OD1       34.0840  -34.4710   44.9350 O.2   119  ASN119     -0.2716
    166  ND2       35.2930  -33.7220   43.1580 N.am  119  ASN119     -0.0877
    167  N         30.6030  -29.3000   44.7510 N.3   121  ILE121     -0.1231
    168  CA        29.6290  -28.3520   45.2940 C.3   121  ILE121      0.1692
    169  C         30.3280  -27.0500   45.6900 C.2   121  ILE121      0.2593
    170  O         31.2880  -27.0770   46.4620 O.2   121  ILE121     -0.2718
    171  CB        28.9230  -28.9490   46.5350 C.3   121  ILE121      0.0266
    172  CG1       28.2960  -30.3210   46.2190 C.3   121  ILE121      0.0019
    173  CG2       27.8430  -27.9920   47.0430 C.3   121  ILE121      0.0020
    174  CD1       27.2430  -30.2950   45.0890 C.3   121  ILE121      0.0001
    175  N         29.8620  -25.9200   45.1630 N.am  122  SER122     -0.1938
    176  CA        30.4440  -24.6090   45.5110 C.3   122  SER122      0.2055
    177  C         30.1010  -24.2240   46.9320 C.2   122  SER122      0.2642
    178  O         29.0610  -24.6400   47.4530 O.2   122  SER122     -0.2714
    179  CB        29.9350  -23.5150   44.5880 C.3   122  SER122      0.2130
    180  OG        28.5570  -23.2370   44.8250 O.3   122  SER122     -0.2179
    181  N         30.9630  -23.3990   47.5280 N.am  123  ALA123     -0.1977
    182  CA        30.7400  -22.8400   48.8530 C.3   123  ALA123      0.1597
    183  C         29.4070  -22.0940   48.8860 C.2   123  ALA123      0.2287
    184  O         28.6480  -22.2010   49.8480 O.2   123  ALA123     -0.2864
    185  CB        31.9020  -21.8970   49.2480 C.3   123  ALA123      0.0319
    186  N         33.5680  -28.3240   39.1090 N.3   178  LEU178     -0.1245
    187  CA        32.7920  -27.7080   40.1400 C.3   178  LEU178      0.1561
    188  C         31.6380  -26.9540   39.5200 C.2   178  LEU178      0.2260
    189  O         31.7920  -26.2640   38.5400 O.2   178  LEU178     -0.2867
    190  CB        33.6630  -26.7430   40.9150 C.3   178  LEU178      0.0270
    191  CG        33.0120  -25.8760   41.9690 C.3   178  LEU178      0.0019
    192  CD1       32.6090  -26.7030   43.1380 C.3   178  LEU178      0.0001
    193  CD2       34.0040  -24.8570   42.3780 C.3   178  LEU178      0.0001
@<TRIPOS>BOND
     1   189   188    2
     2   186   187    1
     3   188   187    1
     4   187   190    1
     5   190   191    1
     6   146   145    2
     7   191   193    1
     8   191   192    1
     9   147   145   am
    10   145   144    1
    11   166   164   am
    12   143   142    2
    13   142   141    1
    14   144   141    1
    15   162   161    2
    16   141   140    1
    17   164   165    2
    18   164   163    1
    19   179   180    1
    20   179   176    1
    21   161   160    1
    22   167   168    1
    23   174   172    1
    24   175   176    1
    25   175   169   am
    26   163   160    1
    27   168   169    1
    28   168   171    1
    29   176   177    1
    30   140   136   am
    31   169   170    2
    32   137   136    2
    33   160   159    1
    34   172   171    1
    35   136   135    1
    36   171   173    1
    37   159   150   am
    38   177   178    2
    39   177   181   am
    40   151   150    2
    41   150   149    1
    42   181   182    1
    43   139   138    1
    44   100    98   ar
    45   100   102   ar
    46   135   138    1
    47   135   134    1
    48   130   129    2
    49   148   149    1
    50   149   152    1
    51    98    97   ar
    52   102   101   ar
    53   134   129   am
    54   129   128    1
    55   182   183    1
    56   182   185    1
    57   183   184    2
    58    31    29   ar
    59    31    33   ar
    60   152   153    1
    61    97    96    1
    62    97    99   ar
    63   101    99   ar
    64   128   127    1
    65   128   131    1
    66    29    28   ar
    67   154   153   ar
    68   154   156   ar
    69    96    93    1
    70    33    32   ar
    71   153   155   ar
    72    22    20   ar
    73   156   158   ar
    74   131   133    1
    75   131   132    1
    76    93    94    1
    77    93    92    1
    78    94    95    2
    79    28    27    1
    80    28    30   ar
    81   155   157   ar
    82    32    30   ar
    83    19    20    1
    84    19    16    1
    85    20    21   ar
    86   158   157   ar
    87    27    24    1
    88    88    87    2
    89    92    87   am
    90    24    23    1
    91    24    25    1
    92    23    17   am
    93    87    86    1
    94    17    16    1
    95    17    18    2
    96    16    15    1
    97   103   104    1
    98   111   112   ar
    99   111   109   ar
   100    15    13   am
   101   112   110   ar
   102   109   108   ar
   103    25    26    2
   104    25    34   am
   105    86    85    1
   106    86    89    1
   107   110   108   ar
   108    85    82   am
   109   108   107    1
   110   104   107    1
   111   104   105    1
   112    82    81    1
   113    82    83    2
   114    81    84    1
   115    81    80    1
   116    13    12    1
   117    13    14    2
   118    34    35    1
   119   105   106    2
   120    91    89    1
   121    89    90    1
   122    12    11    1
   123    35    36    1
   124    35    38    1
   125    11     7   am
   126    36    37    2
   127     7     8    2
   128     7     6    1
   129   113   114    1
   130   125   124    1
   131     5     6    1
   132     5     3   am
   133   118   117    1
   134     2     3    1
   135     2     1    1
   136    55    53    1
   137   117   114    1
   138     6     9    1
   139     3     4    2
   140   114   115    1
   141   124   123    1
   142   124   126    1
   143    10     9    1
   144   119   115   am
   145   119   120    1
   146    53    54    1
   147    53    52    2
   148   123   120    1
   149   115   116    2
   150    52    51    1
   151   120   121    1
   152   121   122    2
   153    51    50    1
   154    79    77   am
   155    69    68    1
   156    70    68    1
   157    50    49    1
   158    67    66    2
   159    68    65    1
   160    65    66    1
   161    65    64    1
   162    77    78    2
   163    77    76    1
   164    49    46    1
   165    44    43    1
   166    40    43    1
   167    40    39    1
   168    40    41    1
   169    45    46    1
   170    45    41   am
   171    76    75    1
   172    46    47    1
   173    41    42    2
   174    56    47   am
   175    56    57    1
   176    60    57    1
   177    60    61    1
   178    59    58    2
   179    47    48    2
   180    75    72    1
   181    57    58    1
   182    63    61   am
   183    61    62    2
   184    72    71    1
   185    72    73    1
   186    74    73    2
