@<TRIPOS>MOLECULE
tmp/2vq5A00.pdb
 126 118 0 0 0
SMALL
GASTEIGER

@<TRIPOS>ATOM
      1  N         16.5550   23.8930  -38.2660 N.3    39  TYR39      -0.1241
      2  CA        15.8700   23.5520  -37.0230 C.3    39  TYR39       0.1605
      3  C         14.8070   22.4770  -37.1790 C.2    39  TYR39       0.2264
      4  O         14.6450   21.6270  -36.3080 O.2    39  TYR39      -0.2867
      5  CB        15.2210   24.7890  -36.4260 C.3    39  TYR39       0.0534
      6  CG        16.0920   25.5330  -35.4600 C.ar   39  TYR39      -0.0201
      7  CD1       16.7080   26.7300  -35.8310 C.ar   39  TYR39      -0.0009
      8  CD2       16.2860   25.0530  -34.1630 C.ar   39  TYR39      -0.0009
      9  CE1       17.5050   27.4230  -34.9380 C.ar   39  TYR39       0.0417
     10  CE2       17.0710   25.7380  -33.2590 C.ar   39  TYR39       0.0417
     11  CZ        17.6700   26.9230  -33.6470 C.ar   39  TYR39       0.1957
     12  OH        18.4510   27.6010  -32.7460 O.3    39  TYR39      -0.2866
     13  N         18.4830   16.5280  -38.1020 N.3    44  LEU44      -0.1245
     14  CA        19.3150   17.3630  -37.2120 C.3    44  LEU44       0.1561
     15  C         19.8020   16.6260  -35.9680 C.2    44  LEU44       0.2260
     16  O         20.9750   16.7110  -35.6140 O.2    44  LEU44      -0.2867
     17  CB        18.5970   18.6630  -36.8090 C.3    44  LEU44       0.0270
     18  CG        19.4620   19.6700  -36.0160 C.3    44  LEU44       0.0019
     19  CD1       20.7130   20.0930  -36.7980 C.3    44  LEU44       0.0001
     20  CD2       18.6640   20.8870  -35.6070 C.3    44  LEU44       0.0001
     21  N         23.7750   16.3430  -34.1940 N.3    48  LEU48      -0.1245
     22  CA        24.1490   17.1840  -33.0600 C.3    48  LEU48       0.1561
     23  C         25.6020   17.0420  -32.5980 C.2    48  LEU48       0.2260
     24  O         26.1920   18.0370  -32.1860 O.2    48  LEU48      -0.2867
     25  CB        23.2090   16.9850  -31.8640 C.3    48  LEU48       0.0270
     26  CG        21.8180   17.6040  -31.9500 C.3    48  LEU48       0.0019
     27  CD1       21.0660   17.3770  -30.6510 C.3    48  LEU48       0.0001
     28  CD2       21.8990   19.0850  -32.2820 C.3    48  LEU48       0.0001
     29  N         28.7620   16.1830  -26.1330 N.3    56  PHE56      -0.1241
     30  CA        28.1900   14.9500  -25.5990 C.3    56  PHE56       0.1605
     31  C         29.2240   13.8570  -25.4020 C.2    56  PHE56       0.2264
     32  O         30.1300   13.6760  -26.2200 O.2    56  PHE56      -0.2867
     33  CB        27.0860   14.4110  -26.5190 C.3    56  PHE56       0.0534
     34  CG        26.0620   15.4350  -26.9050 C.ar   56  PHE56      -0.0203
     35  CD1       25.0430   15.7920  -26.0200 C.ar   56  PHE56      -0.0042
     36  CD2       26.1090   16.0410  -28.1550 C.ar   56  PHE56      -0.0042
     37  CE1       24.0890   16.7560  -26.3800 C.ar   56  PHE56      -0.0003
     38  CE2       25.1690   17.0040  -28.5220 C.ar   56  PHE56      -0.0003
     39  CZ        24.1540   17.3610  -27.6360 C.ar   56  PHE56      -0.0000
     40  N         15.3970   12.4460  -27.1050 N.3    71  LEU71      -0.1245
     41  CA        16.8690   12.5020  -27.0650 C.3    71  LEU71       0.1561
     42  C         17.3700   12.2650  -25.6540 C.2    71  LEU71       0.2260
     43  O         17.0020   12.9980  -24.7300 O.2    71  LEU71      -0.2867
     44  CB        17.4130   13.8450  -27.5770 C.3    71  LEU71       0.0270
     45  CG        16.8550   14.4700  -28.8750 C.3    71  LEU71       0.0019
     46  CD1       17.5470   15.7800  -29.1660 C.3    71  LEU71       0.0001
     47  CD2       17.0780   13.5580  -30.0350 C.3    71  LEU71       0.0001
     48  N         20.0600   13.7670  -19.1570 N.3    83  TYR83      -0.1241
     49  CA        18.6230   13.9870  -19.2270 C.3    83  TYR83       0.1605
     50  C         18.0560   13.5600  -20.5640 C.2    83  TYR83       0.2264
     51  O         18.8010   13.3950  -21.5520 O.2    83  TYR83      -0.2867
     52  CB        18.2400   15.4450  -18.9100 C.3    83  TYR83       0.0534
     53  CG        18.8580   16.5160  -19.7860 C.ar   83  TYR83      -0.0201
     54  CD1       19.8350   17.3680  -19.2790 C.ar   83  TYR83      -0.0009
     55  CD2       18.4360   16.7090  -21.0990 C.ar   83  TYR83      -0.0009
     56  CE1       20.3950   18.3870  -20.0650 C.ar   83  TYR83       0.0417
     57  CE2       18.9950   17.7300  -21.9010 C.ar   83  TYR83       0.0417
     58  CZ        19.9660   18.5580  -21.3760 C.ar   83  TYR83       0.1957
     59  OH        20.5220   19.5600  -22.1520 O.3    83  TYR83      -0.2866
     60  N         15.0120   14.5280  -23.4290 N.3    85  GLU85      -0.1245
     61  CA        14.1740   15.5860  -23.9750 C.3    85  GLU85       0.1567
     62  C         13.3030   15.0040  -25.0610 C.2    85  GLU85       0.2260
     63  O         13.6990   14.0500  -25.7210 O.2    85  GLU85      -0.2867
     64  CB        15.0330   16.6840  -24.5720 C.3    85  GLU85       0.0388
     65  CG        15.4300   17.7060  -23.5420 C.3    85  GLU85       0.1160
     66  CD        16.3430   18.7460  -24.0980 C.2    85  GLU85       0.3649
     67  OE1       16.5440   19.7730  -23.4100 O.co2  85  GLU85      -0.2457
     68  OE2       16.8700   18.5230  -25.2120 O.co2  85  GLU85      -0.2457
     69  N         10.7360   15.9210  -28.4810 N.3    87  PHE87      -0.1241
     70  CA        10.2010   16.8700  -29.4660 C.3    87  PHE87       0.1605
     71  C          8.6690   16.8900  -29.3740 C.2    87  PHE87       0.2264
     72  O          7.9950   15.9040  -29.7060 O.2    87  PHE87      -0.2867
     73  CB        10.6540   16.5310  -30.8940 C.3    87  PHE87       0.0534
     74  CG        12.1450   16.7380  -31.1510 C.ar   87  PHE87      -0.0203
     75  CD1       12.7310   16.2160  -32.3000 C.ar   87  PHE87      -0.0042
     76  CD2       12.9480   17.4400  -30.2560 C.ar   87  PHE87      -0.0042
     77  CE1       14.0810   16.3990  -32.5650 C.ar   87  PHE87      -0.0003
     78  CE2       14.3030   17.6360  -30.5090 C.ar   87  PHE87      -0.0003
     79  CZ        14.8770   17.1060  -31.6620 C.ar   87  PHE87      -0.0000
     80  N          9.2920   25.6540  -32.6280 N.3    97  LYS97      -0.1245
     81  CA         9.6980   24.3160  -32.1720 C.3    97  LYS97       0.1561
     82  C          9.6420   24.2360  -30.6620 C.2    97  LYS97       0.2260
     83  O         10.1380   25.1260  -29.9850 O.2    97  LYS97      -0.2867
     84  CB        11.1200   23.9680  -32.6460 C.3    97  LYS97       0.0271
     85  CG        11.4930   22.4960  -32.4050 C.3    97  LYS97       0.0035
     86  CD        12.9170   22.1760  -32.8730 C.3    97  LYS97       0.0206
     87  CE        13.1530   20.6680  -32.8370 C.3    97  LYS97       0.1093
     88  NZ        14.4880   20.3390  -33.4120 N.3    97  LYS97      -0.1314
     89  N         10.5320   21.7060  -27.2490 N.3    99  VAL99      -0.1245
     90  CA        11.3290   20.5850  -26.7820 C.3    99  VAL99       0.1561
     91  C         11.2150   20.5190  -25.2660 C.2    99  VAL99       0.2260
     92  O         11.5150   21.4860  -24.5800 O.2    99  VAL99      -0.2867
     93  CB        12.8150   20.7250  -27.2110 C.3    99  VAL99       0.0252
     94  CG1       13.6750   19.6140  -26.6120 C.3    99  VAL99       0.0019
     95  CG2       12.9200   20.7090  -28.7410 C.3    99  VAL99       0.0019
     96  N         11.4810   24.0630  -23.5460 N.3   114  ASP114     -0.1239
     97  CA        12.1790   24.9750  -24.4400 C.3   114  ASP114      0.1674
     98  C         11.3100   25.2860  -25.6430 C.2   114  ASP114      0.2266
     99  O         10.6970   24.3920  -26.2200 O.2   114  ASP114     -0.2867
    100  CB        13.5000   24.3710  -24.9240 C.3   114  ASP114      0.1410
    101  CG        14.5510   24.3410  -23.8520 C.2   114  ASP114      0.3668
    102  OD1       14.4160   25.0740  -22.8550 O.co2 114  ASP114     -0.2456
    103  OD2       15.5130   23.5710  -23.9970 O.co2 114  ASP114     -0.2456
    104  N         11.5900   27.4320  -29.3590 N.3   116  ILE116     -0.1245
    105  CA        12.3800   28.1580  -30.3470 C.3   116  ILE116      0.1561
    106  C         11.4260   28.7050  -31.4040 C.2   116  ILE116      0.2260
    107  O         10.6870   27.9430  -32.0270 O.2   116  ILE116     -0.2867
    108  CB        13.4840   27.2740  -31.0230 C.3   116  ILE116      0.0252
    109  CG1       14.4150   26.6230  -29.9850 C.3   116  ILE116      0.0019
    110  CG2       14.3590   28.1190  -31.9550 C.3   116  ILE116      0.0019
    111  CD1       14.1110   25.1580  -29.7270 C.3   116  ILE116      0.0001
    112  N         22.6280   26.0600  -23.5730 N.3   152  PRO152     -0.2102
    113  CA        22.4340   25.0660  -24.6470 C.3   152  PRO152      0.1504
    114  C         21.5820   25.5930  -25.8100 C.2   152  PRO152      0.2575
    115  O         21.8720   25.2910  -26.9680 O.2   152  PRO152     -0.2718
    116  CB        21.7320   23.8920  -23.9380 C.3   152  PRO152      0.0282
    117  CG        21.9230   24.1330  -22.4720 C.3   152  PRO152      0.0208
    118  CD        22.0000   25.6230  -22.3130 C.3   152  PRO152      0.0893
    119  N         20.5470   26.3710  -25.5050 N.am  153  LEU153     -0.1980
    120  CA        19.7420   26.9980  -26.5490 C.3   153  LEU153      0.1596
    121  C         20.5400   28.0490  -27.3280 C.2   153  LEU153      0.2287
    122  O         20.3950   28.1680  -28.5500 O.2   153  LEU153     -0.2864
    123  CB        18.4520   27.6190  -25.9760 C.3   153  LEU153      0.0297
    124  CG        17.2810   26.6990  -25.5640 C.3   153  LEU153      0.0022
    125  CD1       16.1290   27.5240  -24.9850 C.3   153  LEU153      0.0001
    126  CD2       16.7760   25.8000  -26.7190 C.3   153  LEU153      0.0001
@<TRIPOS>BOND
     1     1     2    1
     2    13    14    1
     3    14    17    1
     4    14    15    1
     5     3     2    1
     6     3     4    2
     7     2     5    1
     8    17    18    1
     9    19    18    1
    10     5     6    1
    11    18    20    1
    12    15    16    2
    13     7     6   ar
    14     7     9   ar
    15     6     8   ar
    16     9    11   ar
    17    21    22    1
    18     8    10   ar
    19    11    10   ar
    20    11    12    1
    21    88    87    1
    22    22    23    1
    23    22    25    1
    24    86    87    1
    25    86    85    1
    26    84    85    1
    27    84    81    1
    28    80    81    1
    29    23    24    2
    30    77    75   ar
    31    77    79   ar
    32    75    74   ar
    33    28    26    1
    34    81    82    1
    35   107   106    2
    36   110   108    1
    37    26    25    1
    38    26    27    1
    39    79    78   ar
    40   106   105    1
    41    74    73    1
    42    74    76   ar
    43   108   105    1
    44   108   109    1
    45    73    70    1
    46    82    83    2
    47    78    76   ar
    48   105   104    1
    49    47    45    1
    50   109   111    1
    51    72    71    2
    52    70    71    1
    53    70    69    1
    54    46    45    1
    55    45    44    1
    56    95    93    1
    57   122   121    2
    58    38    36   ar
    59    38    39   ar
    60    36    34   ar
    61    39    37   ar
    62    44    41    1
    63   121   120    1
    64    89    90    1
    65    93    90    1
    66    93    94    1
    67    40    41    1
    68    41    42    1
    69   115   114    2
    70    34    33    1
    71    34    35   ar
    72    90    91    1
    73   126   124    1
    74   120   123    1
    75   120   119    1
    76    33    30    1
    77    37    35   ar
    78    99    98    2
    79    32    31    2
    80    29    30    1
    81   123   124    1
    82   114   119   am
    83   114   113    1
    84    63    62    2
    85    42    43    2
    86    98    97    1
    87    30    31    1
    88   124   125    1
    89    91    92    2
    90    68    66   ar
    91    62    61    1
    92   100    97    1
    93   100   101    1
    94   113   116    1
    95   113   112    1
    96    64    61    1
    97    64    65    1
    98    97    96    1
    99    66    65    1
   100    66    67   ar
   101   103   101   ar
   102    61    60    1
   103   116   117    1
   104   101   102   ar
   105   112   118    1
   106   117   118    1
   107    59    58    1
   108    57    58   ar
   109    57    55   ar
   110    51    50    2
   111    58    56   ar
   112    55    53   ar
   113    50    49    1
   114    56    54   ar
   115    53    54   ar
   116    53    52    1
   117    49    48    1
   118    49    52    1
