@<TRIPOS>MOLECULE
tmp/2vq5B00.pdb
 121 112 0 0 0
SMALL
GASTEIGER

@<TRIPOS>ATOM
      1  N         28.0280   -6.3890    4.2440 N.3    29  LEU29      -0.1231
      2  CA        27.1300   -5.2570    4.4930 C.3    29  LEU29       0.1693
      3  C         26.6170   -4.6270    3.1910 C.2    29  LEU29       0.2591
      4  O         25.4600   -4.2170    3.1120 O.2    29  LEU29      -0.2718
      5  CB        27.8180   -4.1870    5.3540 C.3    29  LEU29       0.0284
      6  CG        27.0560   -2.8850    5.6580 C.3    29  LEU29       0.0019
      7  CD1       25.9860   -3.1330    6.6910 C.3    29  LEU29       0.0001
      8  CD2       27.9920   -1.7630    6.1080 C.3    29  LEU29       0.0001
      9  N         27.4910   -4.5310    2.1880 N.am   30  ALA30      -0.1980
     10  CA        27.1430   -3.8820    0.9240 C.3    30  ALA30       0.1597
     11  C         25.8940   -4.5100    0.3180 C.2    30  ALA30       0.2287
     12  O         24.9410   -3.8010   -0.0270 O.2    30  ALA30      -0.2864
     13  CB        28.3080   -3.9470   -0.0550 C.3    30  ALA30       0.0319
     14  N         22.5860   -3.4940    2.0470 N.3    33  LEU33      -0.1245
     15  CA        22.1740   -2.0870    2.1420 C.3    33  LEU33       0.1561
     16  C         20.6780   -1.8260    1.8360 C.2    33  LEU33       0.2260
     17  O         20.0500   -1.0280    2.5370 O.2    33  LEU33      -0.2867
     18  CB        23.0970   -1.1620    1.3320 C.3    33  LEU33       0.0270
     19  CG        24.5060   -0.9030    1.8930 C.3    33  LEU33       0.0019
     20  CD1       25.3840   -0.1240    0.9170 C.3    33  LEU33       0.0001
     21  CD2       24.4450   -0.1970    3.2370 C.3    33  LEU33       0.0001
     22  N         18.3410   -0.2410    4.5130 N.3    37  LEU37      -0.1245
     23  CA        17.7590    1.0510    4.1570 C.3    37  LEU37       0.1561
     24  C         16.6400    0.8980    3.1160 C.2    37  LEU37       0.2260
     25  O         16.8210    1.2630    1.9570 O.2    37  LEU37      -0.2867
     26  CB        18.8520    2.0030    3.6350 C.3    37  LEU37       0.0270
     27  CG        20.0600    2.2920    4.5380 C.3    37  LEU37       0.0019
     28  CD1       21.1880    2.9380    3.7210 C.3    37  LEU37       0.0001
     29  CD2       19.6750    3.1640    5.7500 C.3    37  LEU37       0.0001
     30  N         15.6030    3.3080   -0.0960 N.3    40  ALA40      -0.1231
     31  CA        16.6190    4.3390   -0.3040 C.3    40  ALA40       0.1694
     32  C         17.1440    4.3440   -1.7400 C.2    40  ALA40       0.2592
     33  O         17.3320    5.4060   -2.3290 O.2    40  ALA40      -0.2718
     34  CB        17.7720    4.1770    0.6870 C.3    40  ALA40       0.0304
     35  N         17.3720    3.1540   -2.2920 N.am   41  PHE41      -0.1976
     36  CA        17.9320    3.0110   -3.6320 C.3    41  PHE41       0.1639
     37  C         16.9070    2.5230   -4.6210 C.2    41  PHE41       0.2290
     38  O         16.0360    1.7210   -4.2890 O.2    41  PHE41      -0.2864
     39  CB        19.1120    2.0420   -3.6170 C.3    41  PHE41       0.0560
     40  CG        20.1150    2.3340   -2.5440 C.ar   41  PHE41      -0.0200
     41  CD1       20.9070    3.4760   -2.6090 C.ar   41  PHE41      -0.0042
     42  CD2       20.2610    1.4760   -1.4580 C.ar   41  PHE41      -0.0042
     43  CE1       21.8410    3.7660   -1.6070 C.ar   41  PHE41      -0.0003
     44  CE2       21.1900    1.7550   -0.4520 C.ar   41  PHE41      -0.0003
     45  CZ        21.9810    2.9020   -0.5280 C.ar   41  PHE41      -0.0000
     46  N         30.6010    0.8390   -5.1170 N.3    56  LEU56      -0.1245
     47  CA        29.1300    0.8020   -5.1440 C.3    56  LEU56       0.1561
     48  C         28.6270    1.8670   -6.1050 C.2    56  LEU56       0.2260
     49  O         29.0360    3.0190   -6.0380 O.2    56  LEU56      -0.2867
     50  CB        28.5150    1.0180   -3.7550 C.3    56  LEU56       0.0270
     51  CG        29.0190    0.2060   -2.5410 C.3    56  LEU56       0.0019
     52  CD1       28.3320    0.6650   -1.2560 C.3    56  LEU56       0.0001
     53  CD2       28.8420   -1.2920   -2.7080 C.3    56  LEU56       0.0001
     54  N         19.2420    6.5480   -7.5240 N.3    59  PHE59      -0.1241
     55  CA        18.0940    6.9110   -6.6940 C.3    59  PHE59       0.1605
     56  C         16.8380    7.1680   -7.5330 C.2    59  PHE59       0.2264
     57  O         16.9200    7.3120   -8.7550 O.2    59  PHE59      -0.2867
     58  CB        18.4640    8.0990   -5.8080 C.3    59  PHE59       0.0534
     59  CG        19.6940    7.8510   -4.9740 C.ar   59  PHE59      -0.0203
     60  CD1       19.5910    7.2640   -3.7160 C.ar   59  PHE59      -0.0042
     61  CD2       20.9610    8.1700   -5.4660 C.ar   59  PHE59      -0.0042
     62  CE1       20.7300    7.0160   -2.9480 C.ar   59  PHE59      -0.0003
     63  CE2       22.1030    7.9220   -4.7180 C.ar   59  PHE59      -0.0003
     64  CZ        21.9910    7.3390   -3.4500 C.ar   59  PHE59      -0.0000
     65  N         25.6550    8.1330   -8.2160 N.3    68  TYR68      -0.1241
     66  CA        27.0990    8.2790   -7.9810 C.3    68  TYR68       0.1605
     67  C         27.7600    6.9590   -7.6180 C.2    68  TYR68       0.2264
     68  O         27.0840    5.9990   -7.2160 O.2    68  TYR68      -0.2867
     69  CB        27.4230    9.3220   -6.9040 C.3    68  TYR68       0.0534
     70  CG        26.7410    9.1290   -5.5720 C.ar   68  TYR68      -0.0201
     71  CD1       25.6850    9.9480   -5.2070 C.ar   68  TYR68      -0.0009
     72  CD2       27.1630    8.1470   -4.6680 C.ar   68  TYR68      -0.0009
     73  CE1       25.0500    9.8100   -3.9800 C.ar   68  TYR68       0.0417
     74  CE2       26.5260    7.9780   -3.4450 C.ar   68  TYR68       0.0417
     75  CZ        25.4640    8.8250   -3.1070 C.ar   68  TYR68       0.1957
     76  OH        24.8080    8.6970   -1.9060 O.3    68  TYR68      -0.2866
     77  N         30.7370    5.1240   -5.2500 N.3    70  GLU70      -0.1245
     78  CA        31.4850    5.2050   -4.0060 C.3    70  GLU70       0.1567
     79  C         32.4920    4.0770   -3.9640 C.2    70  GLU70       0.2260
     80  O         32.1920    2.9770   -4.4050 O.2    70  GLU70      -0.2867
     81  CB        30.5360    5.0380   -2.8370 C.3    70  GLU70       0.0388
     82  CG        29.4630    6.0740   -2.8400 C.3    70  GLU70       0.1160
     83  CD        29.2020    6.6180   -1.4740 C.2    70  GLU70       0.3649
     84  OE1       29.3580    7.8480   -1.2750 O.co2  70  GLU70      -0.2457
     85  OE2       28.8490    5.7950   -0.6100 O.co2  70  GLU70      -0.2457
     86  N         36.6220    3.7870    9.1140 N.3    82  LYS82      -0.1245
     87  CA        36.3040    3.3800    7.7330 C.3    82  LYS82       0.1561
     88  C         36.2120    4.6180    6.8520 C.2    82  LYS82       0.2260
     89  O         35.5870    5.6170    7.2330 O.2    82  LYS82      -0.2867
     90  CB        34.9820    2.5970    7.7260 C.3    82  LYS82       0.0271
     91  CG        34.4360    2.1640    6.3700 C.3    82  LYS82       0.0035
     92  CD        33.1930    1.3160    6.5970 C.3    82  LYS82       0.0206
     93  CE        32.5430    0.9090    5.2940 C.3    82  LYS82       0.1093
     94  NZ        31.2650    0.1750    5.5660 N.3    82  LYS82      -0.1314
     95  N         35.2770    6.0710    2.8780 N.3    84  VAL84      -0.1245
     96  CA        34.5230    5.7800    1.6510 C.3    84  VAL84       0.1561
     97  C         34.4590    7.0430    0.8000 C.2    84  VAL84       0.2260
     98  O         33.8590    8.0290    1.2100 O.2    84  VAL84      -0.2867
     99  CB        33.0610    5.2870    1.9630 C.3    84  VAL84       0.0252
    100  CG1       32.2490    5.0730    0.6540 C.3    84  VAL84       0.0019
    101  CG2       33.0750    4.0080    2.8230 C.3    84  VAL84       0.0019
    102  N         33.8330   10.3290    2.9710 N.3    99  ASP99      -0.1239
    103  CA        33.1470    9.9820    4.2010 C.3    99  ASP99       0.1674
    104  C         34.0790    9.2070    5.1190 C.2    99  ASP99       0.2266
    105  O         34.8240    8.3170    4.6710 O.2    99  ASP99      -0.2867
    106  CB        31.8970    9.1410    3.9120 C.3    99  ASP99       0.1410
    107  CG        30.8520    9.9130    3.1450 C.2    99  ASP99       0.3668
    108  OD1       30.8550   11.1500    3.2560 O.co2  99  ASP99      -0.2456
    109  OD2       30.0450    9.2960    2.4140 O.co2  99  ASP99      -0.2456
    110  N         23.0570   10.6170    4.4670 N.3   137  PRO137     -0.2116
    111  CA        23.4590    9.2310    4.1860 C.3   137  PRO137      0.1372
    112  C         24.1850    8.5580    5.3580 C.2   137  PRO137      0.2244
    113  O         23.8860    7.4210    5.6970 O.2   137  PRO137     -0.2868
    114  CB        24.3760    9.3640    2.9620 C.3   137  PRO137      0.0268
    115  CG        23.9830   10.6520    2.3110 C.3   137  PRO137      0.0207
    116  CD        23.5670   11.5590    3.4460 C.3   137  PRO137      0.0892
    117  N         21.5580    8.0260    8.2780 N.3   140  ALA140     -0.1245
    118  CA        20.7120    6.8870    7.9280 C.3   140  ALA140      0.1562
    119  C         21.4070    5.5690    8.2310 C.2   140  ALA140      0.2260
    120  O         20.8030    4.6550    8.7710 O.2   140  ALA140     -0.2867
    121  CB        20.3310    6.9580    6.4600 C.3   140  ALA140      0.0290
@<TRIPOS>BOND
     1    57    56    2
     2    65    66    1
     3    66    67    1
     4    66    69    1
     5    67    68    2
     6    56    55    1
     7    54    55    1
     8    69    70    1
     9    55    58    1
    10    48    49    2
    11    48    47    1
    12    58    59    1
    13    70    71   ar
    14    70    72   ar
    15    61    59   ar
    16    61    63   ar
    17    77    78    1
    18    71    73   ar
    19    47    46    1
    20    47    50    1
    21    59    60   ar
    22    63    64   ar
    23    72    74   ar
    24    37    38    2
    25    37    36    1
    26    80    79    2
    27    78    79    1
    28    78    81    1
    29    73    75   ar
    30    50    51    1
    31    60    62   ar
    32    36    39    1
    33    36    35    1
    34    39    40    1
    35    64    62   ar
    36    74    75   ar
    37    75    76    1
    38    82    81    1
    39    82    83    1
    40    53    51    1
    41    41    40   ar
    42    41    43   ar
    43    40    42   ar
    44    51    52    1
    45    33    32    2
    46    35    32   am
    47    32    31    1
    48    43    45   ar
    49    83    84   ar
    50    83    85   ar
    51    42    44   ar
    52    45    44   ar
    53    31    30    1
    54    31    34    1
    55    13    10    1
    56    12    11    2
    57    11    10    1
    58   100    99    1
    59    97    98    2
    60    97    96    1
    61    20    19    1
    62    10     9    1
    63    18    19    1
    64    18    15    1
    65    96    99    1
    66    96    95    1
    67    16    15    1
    68    16    17    2
    69    19    21    1
    70    25    24    2
    71    99   101    1
    72    14    15    1
    73     9     3   am
    74   115   114    1
    75   115   116    1
    76   109   107   ar
    77   114   111    1
    78   102   103    1
    79     4     3    2
    80    24    23    1
    81   107   108   ar
    82   107   106    1
    83     3     2    1
    84   116   110    1
    85    26    23    1
    86    26    27    1
    87    28    27    1
    88   106   103    1
    89    23    22    1
    90   111   110    1
    91   111   112    1
    92   103   104    1
    93     1     2    1
    94     2     5    1
    95    27    29    1
    96   105   104    2
    97    93    94    1
    98    93    92    1
    99     5     6    1
   100   112   113    2
   101     6     8    1
   102     6     7    1
   103    91    92    1
   104    91    90    1
   105   121   118    1
   106    88    89    2
   107    88    87    1
   108    90    87    1
   109    87    86    1
   110   118   119    1
   111   118   117    1
   112   119   120    2
