@<TRIPOS>MOLECULE
tmp/2vq7B03.pdb
 71 69 0 0 0
SMALL
GASTEIGER

@<TRIPOS>ATOM
      1  N        -22.2910  203.7130   29.8930 N.3    80  ALA80      -0.1245
      2  CA       -22.3090  202.6690   30.9140 C.3    80  ALA80       0.1562
      3  C        -22.3490  201.2580   30.3130 C.2    80  ALA80       0.2260
      4  O        -21.9820  200.2810   30.9750 O.2    80  ALA80      -0.2867
      5  CB       -23.4790  202.8650   31.8550 C.3    80  ALA80       0.0290
      6  N        -17.5310  200.6640   27.1620 N.3    83  THR83      -0.1218
      7  CA       -16.5350  201.4900   27.8500 C.3    83  THR83       0.1862
      8  C        -15.4540  201.9690   26.8900 C.2    83  THR83       0.2287
      9  O        -15.3480  201.4600   25.7800 O.2    83  THR83      -0.2866
     10  CB       -15.8990  200.7190   29.0280 C.3    83  THR83       0.1770
     11  OG1      -15.1020  199.6480   28.5170 O.3    83  THR83      -0.2211
     12  CG2      -16.9740  200.1530   29.9590 C.3    83  THR83       0.0375
     13  N        -27.5440  200.4650   33.0830 N.3   384  PRO384     -0.2102
     14  CA       -26.6980  200.1820   34.2560 C.3   384  PRO384      0.1504
     15  C        -26.4740  201.4000   35.1450 C.2   384  PRO384      0.2576
     16  O        -26.0790  202.4480   34.6560 O.2   384  PRO384     -0.2718
     17  CB       -25.3810  199.7380   33.6280 C.3   384  PRO384      0.0282
     18  CG       -25.7420  199.3150   32.1940 C.3   384  PRO384      0.0208
     19  CD       -26.8060  200.2900   31.8160 C.3   384  PRO384      0.0893
     20  N        -26.7430  201.2810   36.4450 N.am  385  SER385     -0.1938
     21  CA       -26.4440  202.4010   37.3490 C.3   385  SER385      0.2055
     22  C        -24.9500  202.6090   37.4900 C.2   385  SER385      0.2643
     23  O        -24.1660  201.6580   37.4740 O.2   385  SER385     -0.2714
     24  CB       -27.0950  202.2560   38.7270 C.3   385  SER385      0.2130
     25  OG       -26.8550  200.9740   39.2580 O.3   385  SER385     -0.2179
     26  N        -24.5600  203.8670   37.5950 N.am  386  PHE386     -0.1959
     27  CA       -23.1670  204.2170   37.7760 C.3   386  PHE386      0.1771
     28  C        -23.1060  205.3550   38.7610 C.2   386  PHE386      0.2619
     29  O        -24.1360  205.8990   39.1320 O.2   386  PHE386     -0.2715
     30  CB       -22.4760  204.5620   36.4570 C.3   386  PHE386      0.0574
     31  CG       -23.0170  205.7810   35.7720 C.ar  386  PHE386     -0.0200
     32  CD1      -24.1640  205.7130   34.9910 C.ar  386  PHE386     -0.0042
     33  CD2      -22.3520  206.9930   35.8700 C.ar  386  PHE386     -0.0042
     34  CE1      -24.6460  206.8470   34.3560 C.ar  386  PHE386     -0.0003
     35  CE2      -22.8340  208.1280   35.2150 C.ar  386  PHE386     -0.0003
     36  CZ       -23.9830  208.0480   34.4760 C.ar  386  PHE386     -0.0000
     37  N        -21.9000  205.6900   39.1990 N.am  387  ASP387     -0.1971
     38  CA       -21.7090  206.6060   40.3060 C.3   387  ASP387      0.1709
     39  C        -21.8370  208.0620   39.8790 C.2   387  ASP387      0.2293
     40  O        -20.8680  208.7270   39.4660 O.2   387  ASP387     -0.2864
     41  CB       -20.3680  206.3390   40.9980 C.3   387  ASP387      0.1436
     42  CG       -20.2970  206.9380   42.4070 C.2   387  ASP387      0.3671
     43  OD1      -21.0190  207.9110   42.7290 O.co2 387  ASP387     -0.2456
     44  OD2      -19.4840  206.4400   43.2020 O.co2 387  ASP387     -0.2456
     45  N        -15.4870  206.1070   35.7090 N.3   417  LEU417     -0.1231
     46  CA       -16.4860  205.7140   36.6820 C.3   417  LEU417      0.1693
     47  C        -17.1410  204.4070   36.2940 C.2   417  LEU417      0.2592
     48  O        -17.9200  203.8370   37.0650 O.2   417  LEU417     -0.2718
     49  CB       -17.5100  206.8280   36.8420 C.3   417  LEU417      0.0284
     50  CG       -16.7460  208.1000   37.2220 C.3   417  LEU417      0.0019
     51  CD1      -17.1690  209.2960   36.3740 C.3   417  LEU417      0.0001
     52  CD2      -16.8560  208.3840   38.6970 C.3   417  LEU417      0.0001
     53  N        -16.8130  203.9180   35.1070 N.am  418  MET418     -0.1965
     54  CA       -17.2960  202.6160   34.6850 C.3   418  MET418      0.1736
     55  C        -16.3170  201.5010   35.0760 C.2   418  MET418      0.2617
     56  O        -16.7250  200.4620   35.6110 O.2   418  MET418     -0.2715
     57  CB       -17.5950  202.5970   33.1740 C.3   418  MET418      0.0427
     58  CG       -18.2990  203.8290   32.6170 C.3   418  MET418      0.0599
     59  SD       -19.8400  204.4400   33.3700 S.3   418  MET418     -0.1393
     60  CE       -20.5540  202.9740   34.0090 C.3   418  MET418      0.0692
     61  N        -15.0300  201.7480   34.8190 N.am  419  THR419     -0.1937
     62  CA       -13.9560  200.7450   34.9460 C.3   419  THR419      0.2028
     63  C        -13.0770  200.9830   36.1590 C.2   419  THR419      0.2642
     64  O        -12.3810  200.0700   36.6040 O.2   419  THR419     -0.2714
     65  CB       -12.9960  200.7700   33.7410 C.3   419  THR419      0.1808
     66  OG1      -12.3050  202.0320   33.7080 O.3   419  THR419     -0.2208
     67  CG2      -13.7380  200.5380   32.4310 C.3   419  THR419      0.0379
     68  N        -13.0730  202.2200   36.6560 N.am  420  GLY420     -0.1954
     69  CA       -12.3370  202.5800   37.8730 C.3   420  GLY420      0.1869
     70  C        -10.8680  202.9400   37.6600 C.2   420  GLY420      0.2309
     71  O        -10.1370  203.1950   38.6310 O.2   420  GLY420     -0.2863
@<TRIPOS>BOND
     1     9     8    2
     2     8     7    1
     3     6     7    1
     4     7    10    1
     5    11    10    1
     6    10    12    1
     7     1     2    1
     8     3     2    1
     9     3     4    2
    10     2     5    1
    11    19    18    1
    12    19    13    1
    13    18    17    1
    14    67    65    1
    15    58    57    1
    16    58    59    1
    17    13    14    1
    18    57    54    1
    19    59    60    1
    20    17    14    1
    21    66    65    1
    22    65    62    1
    23    14    15    1
    24    34    36   ar
    25    34    32   ar
    26    36    35   ar
    27    16    15    2
    28    54    55    1
    29    54    53    1
    30    61    62    1
    31    61    55   am
    32    62    63    1
    33    32    31   ar
    34    55    56    2
    35    53    47   am
    36    15    20   am
    37    35    33   ar
    38    45    46    1
    39    31    33   ar
    40    31    30    1
    41    63    64    2
    42    63    68   am
    43    47    46    1
    44    47    48    2
    45    51    50    1
    46    20    21    1
    47    30    27    1
    48    68    69    1
    49    46    49    1
    50    49    50    1
    51    50    52    1
    52    21    22    1
    53    21    24    1
    54    23    22    2
    55    22    26   am
    56    26    27    1
    57    70    69    1
    58    70    71    2
    59    27    28    1
    60    24    25    1
    61    28    29    2
    62    28    37   am
    63    37    38    1
    64    40    39    2
    65    39    38    1
    66    38    41    1
    67    41    42    1
    68    42    43   ar
    69    42    44   ar
