@<TRIPOS>MOLECULE
tmp/2vqdA00.pdb
 186 176 0 0 0
SMALL
GASTEIGER

@<TRIPOS>ATOM
      1  N         12.2030   33.7930    7.6660 N.3   116  LYS116     -0.1245
      2  CA        11.0070   33.5280    6.8810 C.3   116  LYS116      0.1561
      3  C         10.8110   34.4750    5.7070 C.2   116  LYS116      0.2260
      4  O         10.0460   34.1680    4.7830 O.2   116  LYS116     -0.2867
      5  CB         9.7860   33.5140    7.7830 C.3   116  LYS116      0.0271
      6  CG         9.7360   32.2570    8.6260 C.3   116  LYS116      0.0035
      7  CD         8.6560   32.3090    9.6630 C.3   116  LYS116      0.0206
      8  CE         7.3090   32.0520    9.0710 C.3   116  LYS116      0.1093
      9  NZ         6.2800   32.5000   10.0310 N.3   116  LYS116     -0.1314
     10  N          2.1690   33.2550   -0.5520 N.3   131  VAL131     -0.1245
     11  CA         1.0980   34.1280   -0.0660 C.3   131  VAL131      0.1561
     12  C          1.4290   35.5760   -0.4240 C.2   131  VAL131      0.2260
     13  O          2.5110   36.0580   -0.0870 O.2   131  VAL131     -0.2867
     14  CB         0.8730   34.0390    1.4710 C.3   131  VAL131      0.0252
     15  CG1       -0.1590   35.0840    1.9250 C.3   131  VAL131      0.0019
     16  CG2        0.4060   32.6420    1.8930 C.3   131  VAL131      0.0019
     17  N         -1.8240   40.5040    7.6910 N.3   157  ILE157     -0.1245
     18  CA        -1.2340   39.9590    8.8940 C.3   157  ILE157      0.1561
     19  C          0.2320   40.3790    8.9350 C.2   157  ILE157      0.2260
     20  O          0.9360   40.2860    7.9310 O.2   157  ILE157     -0.2867
     21  CB        -1.4080   38.4100    8.9710 C.3   157  ILE157      0.0252
     22  CG1       -0.7970   37.8540   10.2580 C.3   157  ILE157      0.0019
     23  CG2       -0.8200   37.7020    7.7440 C.3   157  ILE157      0.0019
     24  CD1       -1.1910   36.4230   10.5390 C.3   157  ILE157      0.0001
     25  N          3.8600   39.5410   10.3790 N.3   159  LYS159     -0.1245
     26  CA         4.5120   38.2950   10.8020 C.3   159  LYS159      0.1561
     27  C          5.9890   38.5290   11.0630 C.2   159  LYS159      0.2260
     28  O          6.6580   39.1760   10.2700 O.2   159  LYS159     -0.2867
     29  CB         4.3790   37.2260    9.7230 C.3   159  LYS159      0.0271
     30  CG         2.9540   36.9190    9.3030 C.3   159  LYS159      0.0035
     31  CD         2.9100   35.8570    8.2170 C.3   159  LYS159      0.0206
     32  CE         3.1280   34.4550    8.7780 C.3   159  LYS159      0.1093
     33  NZ         3.1020   33.4310    7.7100 N.3   159  LYS159     -0.1314
     34  N         10.1610   34.2930   13.3480 N.3   163  GLY163     -0.1210
     35  CA         9.0930   33.7360   14.1690 C.3   163  GLY163      0.1956
     36  C          9.0200   32.2180   14.1950 C.2   163  GLY163      0.2612
     37  O          9.5290   31.5290   13.3030 O.2   163  GLY163     -0.2717
     38  N          8.3810   31.7140   15.2460 N.am  164  GLY164     -0.1942
     39  CA         8.1660   30.2860   15.4450 C.3   164  GLY164      0.2014
     40  C          7.0930   30.0160   16.4890 C.2   164  GLY164      0.2639
     41  O          6.5900   30.9360   17.1490 O.2   164  GLY164     -0.2714
     42  N          6.7360   28.7420   16.6280 N.am  165  GLY165     -0.1939
     43  CA         5.6930   28.3130   17.5610 C.3   165  GLY165      0.2014
     44  C          4.3980   29.1030   17.4810 C.2   165  GLY165      0.2639
     45  O          3.6800   29.2060   18.4780 O.2   165  GLY165     -0.2714
     46  N          4.1060   29.6600   16.3010 N.am  166  GLY166     -0.1939
     47  CA         2.8850   30.4410   16.0670 C.3   166  GLY166      0.2014
     48  C          2.8330   31.8140   16.7230 C.2   166  GLY166      0.2638
     49  O          1.7700   32.4390   16.7650 O.2   166  GLY166     -0.2714
     50  N          3.9720   32.2910   17.2290 N.am  167  ARG167     -0.1977
     51  CA         4.0280   33.5650   17.9500 C.3   167  ARG167      0.1597
     52  C          4.5900   34.6640   17.0720 C.2   167  ARG167      0.2287
     53  O          5.1500   34.3970   15.9980 O.2   167  ARG167     -0.2864
     54  CB         4.8570   33.4250   19.2240 C.3   167  ARG167      0.0334
     55  CG         4.1450   32.6200   20.3170 C.3   167  ARG167      0.0492
     56  CD         4.6520   32.9600   21.7210 C.3   167  ARG167      0.2205
     57  NE         3.7190   32.5030   22.7610 N.pl3 167  ARG167     -0.0865
     58  CZ         3.9070   32.6540   24.0730 C.cat 167  ARG167      0.5346
     59  NH1        2.9930   32.2100   24.9300 N.pl3 167  ARG167      0.1354
     60  NH2        5.0030   33.2490   24.5370 N.pl3 167  ARG167      0.1354
     61  N          2.8040   37.2650   15.5710 N.3   169  MET169     -0.1245
     62  CA         1.9280   37.6380   14.4610 C.3   169  MET169      0.1570
     63  C          0.8170   38.5620   14.9520 C.2   169  MET169      0.2261
     64  O          0.3950   38.4780   16.1020 O.2   169  MET169     -0.2867
     65  CB         1.3090   36.4020   13.8210 C.3   169  MET169      0.0387
     66  CG         2.3090   35.4280   13.2300 C.3   169  MET169      0.0595
     67  SD         1.5540   34.0740   12.2910 S.3   169  MET169     -0.1393
     68  CE         0.0880   33.7600   13.2410 C.3   169  MET169      0.0692
     69  N          1.7380   39.8420    5.0640 N.3   201  GLU201     -0.1231
     70  CA         1.0240   38.9660    4.1390 C.3   201  GLU201      0.1699
     71  C         -0.4570   39.3130    4.1490 C.2   201  GLU201      0.2592
     72  O         -0.9500   39.9000    5.0980 O.2   201  GLU201     -0.2718
     73  CB         1.2130   37.4940    4.5280 C.3   201  GLU201      0.0402
     74  CG         2.6360   36.9650    4.3620 C.3   201  GLU201      0.1161
     75  CD         2.7150   35.4530    4.4560 C.2   201  GLU201      0.3649
     76  OE1        3.6380   34.8720    3.8550 O.co2 201  GLU201     -0.2457
     77  OE2        1.8570   34.8430    5.1250 O.co2 201  GLU201     -0.2457
     78  N         -1.1540   38.9520    3.0800 N.am  202  LYS202     -0.1966
     79  CA        -2.6170   38.9640    3.0700 C.3   202  LYS202      0.1728
     80  C         -3.0960   38.0040    4.1690 C.2   202  LYS202      0.2616
     81  O         -2.5690   36.9080    4.2910 O.2   202  LYS202     -0.2715
     82  CB        -3.1370   38.5000    1.6980 C.3   202  LYS202      0.0311
     83  CG        -4.3590   39.2130    1.1720 C.3   202  LYS202      0.0038
     84  CD        -4.7400   38.6820   -0.2260 C.3   202  LYS202      0.0206
     85  CE        -5.6450   39.6670   -1.0100 C.3   202  LYS202      0.1093
     86  NZ        -6.4930   39.0080   -2.1050 N.3   202  LYS202     -0.1314
     87  N         -4.0680   38.4240    4.9780 N.am  203  PHE203     -0.1960
     88  CA        -4.6630   37.5470    5.9830 C.3   203  PHE203      0.1771
     89  C         -5.7100   36.6990    5.2740 C.2   203  PHE203      0.2619
     90  O         -6.7640   37.2040    4.8780 O.2   203  PHE203     -0.2715
     91  CB        -5.2940   38.3540    7.1260 C.3   203  PHE203      0.0574
     92  CG        -6.0410   37.5120    8.1450 C.ar  203  PHE203     -0.0200
     93  CD1       -5.3770   36.5520    8.9010 C.ar  203  PHE203     -0.0042
     94  CD2       -7.4070   37.7020    8.3650 C.ar  203  PHE203     -0.0042
     95  CE1       -6.0630   35.7790    9.8440 C.ar  203  PHE203     -0.0003
     96  CE2       -8.1060   36.9350    9.3110 C.ar  203  PHE203     -0.0003
     97  CZ        -7.4280   35.9700   10.0520 C.ar  203  PHE203     -0.0000
     98  N         -5.4020   35.4240    5.0710 N.am  204  LEU204     -0.1977
     99  CA        -6.3420   34.5170    4.4250 C.3   204  LEU204      0.1596
    100  C         -7.4320   34.0740    5.4060 C.2   204  LEU204      0.2287
    101  O         -7.1340   33.5680    6.4890 O.2   204  LEU204     -0.2864
    102  CB        -5.6060   33.3020    3.8600 C.3   204  LEU204      0.0297
    103  CG        -4.4900   33.5900    2.8460 C.3   204  LEU204      0.0022
    104  CD1       -4.1220   32.3150    2.0740 C.3   204  LEU204      0.0001
    105  CD2       -4.8850   34.7040    1.8850 C.3   204  LEU204      0.0001
    106  N         -4.3110   24.4500    6.3970 N.3   209  HIS209     -0.1241
    107  CA        -2.8800   24.2510    6.5400 C.3   209  HIS209      0.1621
    108  C         -2.5290   22.9230    5.9170 C.2   209  HIS209      0.2264
    109  O         -2.7340   21.8850    6.5410 O.2   209  HIS209     -0.2867
    110  CB        -2.4590   24.2730    8.0030 C.3   209  HIS209      0.0745
    111  CG        -0.9780   24.2950    8.1990 C.ar  209  HIS209      0.0817
    112  ND1       -0.3030   25.4180    8.6250 N.ar  209  HIS209     -0.2268
    113  CD2       -0.0410   23.3330    8.0290 C.ar  209  HIS209      0.1154
    114  CE1        0.9880   25.1470    8.7010 C.ar  209  HIS209      0.1986
    115  NE2        1.1730   23.8890    8.3460 N.ar  209  HIS209     -0.2212
    116  N         -6.2600   23.9710   14.8150 N.3   233  GLN233     -0.1245
    117  CA        -5.2360   24.6910   15.5590 C.3   233  GLN233      0.1566
    118  C         -5.8520   25.5910   16.6180 C.2   233  GLN233      0.2260
    119  O         -6.9210   26.1570   16.4040 O.2   233  GLN233     -0.2867
    120  CB        -4.4290   25.5710   14.6190 C.3   233  GLN233      0.0367
    121  CG        -3.6920   24.8300   13.5260 C.3   233  GLN233      0.0905
    122  CD        -3.0780   25.7630   12.5090 C.2   233  GLN233      0.2608
    123  OE1       -3.1860   26.9790   12.6280 O.2   233  GLN233     -0.2717
    124  NE2       -2.4240   25.1990   11.5060 N.am  233  GLN233     -0.0878
    125  N         -2.5570   29.0350   16.7190 N.3   236  HIS236     -0.1241
    126  CA        -1.6500   28.6320   15.6190 C.3   236  HIS236      0.1621
    127  C         -0.8130   27.3810   15.9250 C.2   236  HIS236      0.2264
    128  O          0.2060   27.1130   15.2690 O.2   236  HIS236     -0.2867
    129  CB        -0.7470   29.7850   15.2070 C.3   236  HIS236      0.0745
    130  CG        -1.4930   31.0420   14.9040 C.ar  236  HIS236      0.0817
    131  ND1       -1.2850   32.2140   15.5940 N.ar  236  HIS236     -0.2268
    132  CD2       -2.4720   31.3000   14.0070 C.ar  236  HIS236      0.1154
    133  CE1       -2.0980   33.1440   15.1280 C.ar  236  HIS236      0.1986
    134  NE2       -2.8170   32.6190   14.1540 N.ar  236  HIS236     -0.2212
    135  N          5.4250   24.1840    4.3140 N.3   276  GLU276     -0.1245
    136  CA         4.1050   24.5450    4.8370 C.3   276  GLU276      0.1567
    137  C          3.3920   25.5100    3.8960 C.2   276  GLU276      0.2260
    138  O          3.9640   26.5090    3.4830 O.2   276  GLU276     -0.2867
    139  CB         4.1960   25.1470    6.2380 C.3   276  GLU276      0.0388
    140  CG         4.6950   24.1810    7.2830 C.3   276  GLU276      0.1160
    141  CD         4.4860   24.6900    8.6970 C.2   276  GLU276      0.3649
    142  OE1        4.7560   25.8900    8.9550 O.co2 276  GLU276     -0.2457
    143  OE2        4.0750   23.8840    9.5600 O.co2 276  GLU276     -0.2457
    144  N         -0.5490   27.4120    2.8140 N.3   278  LEU278     -0.1245
    145  CA        -1.9610   27.6910    3.0090 C.3   278  LEU278      0.1561
    146  C         -2.6450   27.4230    1.6710 C.2   278  LEU278      0.2260
    147  O         -2.1850   27.8800    0.6280 O.2   278  LEU278     -0.2867
    148  CB        -2.1740   29.1230    3.5040 C.3   278  LEU278      0.0270
    149  CG        -1.6290   29.4070    4.9120 C.3   278  LEU278      0.0019
    150  CD1       -1.7510   30.8690    5.2710 C.3   278  LEU278      0.0001
    151  CD2       -2.3430   28.5610    5.9520 C.3   278  LEU278      0.0001
    152  N          4.0040   29.3800    3.0260 N.3   287  ILE287     -0.1231
    153  CA         4.2400   30.2360    4.2100 C.3   287  ILE287      0.1692
    154  C          5.6040   29.9730    4.8620 C.2   287  ILE287      0.2591
    155  O          6.2800   30.9210    5.2860 O.2   287  ILE287     -0.2718
    156  CB         3.1290   30.1300    5.3030 C.3   287  ILE287      0.0266
    157  CG1        2.8150   28.6700    5.6510 C.3   287  ILE287      0.0019
    158  CG2        1.8720   30.8700    4.8560 C.3   287  ILE287      0.0020
    159  CD1        1.7470   28.4790    6.7460 C.3   287  ILE287      0.0001
    160  N          6.0060   28.7080    4.9690 N.am  288  GLU288     -0.1979
    161  CA         7.3270   28.3870    5.5130 C.3   288  GLU288      0.1602
    162  C          7.7520   26.9540    5.3020 C.2   288  GLU288      0.2287
    163  O          6.9620   26.1020    4.9200 O.2   288  GLU288     -0.2864
    164  CB         7.4370   28.7260    7.0060 C.3   288  GLU288      0.0415
    165  CG         6.7860   27.7470    7.9480 C.3   288  GLU288      0.1163
    166  CD         7.0980   28.0540    9.4150 C.2   288  GLU288      0.3649
    167  OE1        8.1580   28.6290    9.7120 O.co2 288  GLU288     -0.2457
    168  OE2        6.2720   27.6950   10.2820 O.co2 288  GLU288     -0.2457
    169  N         -8.3270   26.8250    9.0340 N.3   437  ILE437     -0.1231
    170  CA        -7.4550   27.0820   10.1870 C.3   437  ILE437      0.1692
    171  C         -8.1360   27.8620   11.3280 C.2   437  ILE437      0.2592
    172  O         -7.6480   27.8720   12.4470 O.2   437  ILE437     -0.2718
    173  CB        -6.1860   27.8500    9.7630 C.3   437  ILE437      0.0266
    174  CG1       -6.5600   29.1890    9.1130 C.3   437  ILE437      0.0019
    175  CG2       -5.3300   27.0100    8.8150 C.3   437  ILE437      0.0020
    176  CD1       -5.4230   30.2030    9.0460 C.3   437  ILE437      0.0001
    177  N         -9.2530   28.5170   11.0300 N.am  438  HIS438     -0.1976
    178  CA        -9.9870   29.3170   12.0160 C.3   438  HIS438      0.1656
    179  C        -11.1380   28.5600   12.6750 C.2   438  HIS438      0.2291
    180  O        -11.8130   29.1190   13.5230 O.2   438  HIS438     -0.2864
    181  CB       -10.5570   30.5700   11.3510 C.3   438  HIS438      0.0771
    182  CG        -9.5480   31.3480   10.5680 C.ar  438  HIS438      0.0820
    183  ND1       -8.4260   31.9080   11.1410 N.ar  438  HIS438     -0.2267
    184  CD2       -9.4930   31.6550    9.2530 C.ar  438  HIS438      0.1154
    185  CE1       -7.7240   32.5250   10.2120 C.ar  438  HIS438      0.1986
    186  NE2       -8.3530   32.3940    9.0590 N.ar  438  HIS438     -0.2212
@<TRIPOS>BOND
     1    86    85    1
     2    85    84    1
     3    10    11    1
     4    12    13    2
     5    12    11    1
     6    84    83    1
     7    11    14    1
     8   147   146    2
     9    83    82    1
    10    14    16    1
    11    14    15    1
    12   146   145    1
    13    82    79    1
    14   105   103    1
    15   104   103    1
    16   144   145    1
    17   103   102    1
    18   145   148    1
    19   152   153    1
    20    79    78    1
    21    79    80    1
    22    78    71   am
    23   138   137    2
    24   148   149    1
    25    76    75   ar
    26   102    99    1
    27   137   136    1
    28    70    71    1
    29    70    73    1
    30    70    69    1
    31    71    72    2
    32    80    81    2
    33    80    87   am
    34   153   154    1
    35   153   156    1
    36   135   136    1
    37    74    75    1
    38    74    73    1
    39    99    98    1
    40    99   100    1
    41    75    77   ar
    42     4     3    2
    43   136   139    1
    44   158   156    1
    45   154   160   am
    46   154   155    2
    47    90    89    2
    48   149   150    1
    49   149   151    1
    50   163   162    2
    51   160   161    1
    52    87    88    1
    53    98    89   am
    54    89    88    1
    55   162   161    1
    56   156   157    1
    57   100   101    2
    58   161   164    1
    59   157   159    1
    60     3     2    1
    61   108   107    1
    62   108   109    2
    63    88    91    1
    64   139   140    1
    65   106   107    1
    66   107   110    1
    67     2     1    1
    68     2     5    1
    69   164   165    1
    70    91    92    1
    71   140   141    1
    72    17    18    1
    73    33    32    1
    74    23    21    1
    75     5     6    1
    76    20    19    2
    77   165   166    1
    78   110   111    1
    79   113   111   ar
    80   113   115   ar
    81    92    94   ar
    82    92    93   ar
    83   111   112   ar
    84    31    32    1
    85    31    30    1
    86   115   114   ar
    87    94    96   ar
    88   112   114   ar
    89     6     7    1
    90   141   142   ar
    91   141   143   ar
    92   175   173    1
    93    18    19    1
    94    18    21    1
    95    93    95   ar
    96    21    22    1
    97   169   170    1
    98   176   174    1
    99   186   184   ar
   100   186   185   ar
   101     8     7    1
   102     8     9    1
   103   174   173    1
   104   184   182   ar
   105    30    29    1
   106    96    97   ar
   107   166   167   ar
   108   166   168   ar
   109    29    26    1
   110   173   170    1
   111    95    97   ar
   112   170   171    1
   113   185   183   ar
   114    22    24    1
   115    28    27    2
   116    25    26    1
   117   182   183   ar
   118   182   181    1
   119    26    27    1
   120   177   171   am
   121   177   178    1
   122   171   172    2
   123   181   178    1
   124   124   122   am
   125   178   179    1
   126    67    66    1
   127    67    68    1
   128   122   123    2
   129   122   121    1
   130   179   180    2
   131    66    65    1
   132    37    36    2
   133    34    35    1
   134   121   120    1
   135    65    62    1
   136   132   134   ar
   137   132   130   ar
   138   134   133   ar
   139    35    36    1
   140    36    38   am
   141    62    63    1
   142    62    61    1
   143   120   117    1
   144   116   117    1
   145   130   129    1
   146   130   131   ar
   147    63    64    2
   148   133   131   ar
   149   129   126    1
   150    38    39    1
   151   128   127    2
   152    39    40    1
   153   117   118    1
   154   126   127    1
   155   126   125    1
   156    53    52    2
   157    47    46    1
   158    47    48    1
   159    46    44   am
   160   119   118    2
   161    40    42   am
   162    40    41    2
   163    42    43    1
   164    48    49    2
   165    48    50   am
   166    52    51    1
   167    50    51    1
   168    44    43    1
   169    44    45    2
   170    51    54    1
   171    54    55    1
   172    55    56    1
   173    56    57    1
   174    57    58    2
   175    58    60    1
   176    58    59    1
