@<TRIPOS>MOLECULE
tmp/2vqiB02.pdb
 89 87 0 0 0
SMALL
GASTEIGER

@<TRIPOS>ATOM
      1  N        -41.5670   72.8290   -0.4890 N.3    74  TRP74      -0.1241
      2  CA       -41.1270   72.0550    0.6660 C.3    74  TRP74       0.1605
      3  C        -39.6630   71.6470    0.5310 C.2    74  TRP74       0.2264
      4  O        -39.1000   71.0160    1.4250 O.2    74  TRP74      -0.2867
      5  CB       -42.0040   70.8150    0.8460 C.3    74  TRP74       0.0550
      6  CG       -42.1420   70.3800    2.2730 C.ar   74  TRP74       0.0003
      7  CD1      -41.7170   71.0550    3.3800 C.ar   74  TRP74       0.0946
      8  CD2      -42.7480   69.1710    2.7480 C.ar   74  TRP74       0.0152
      9  NE1      -42.0210   70.3420    4.5140 N.ar   74  TRP74      -0.2442
     10  CE2      -42.6540   69.1820    4.1530 C.ar   74  TRP74       0.0810
     11  CE3      -43.3610   68.0820    2.1200 C.ar   74  TRP74       0.0012
     12  CZ2      -43.1490   68.1450    4.9420 C.ar   74  TRP74       0.0191
     13  CZ3      -43.8520   67.0540    2.9050 C.ar   74  TRP74       0.0001
     14  CH2      -43.7430   67.0930    4.3010 C.ar   74  TRP74       0.0015
     15  N        -39.7350   63.7180   -3.9970 N.3    78  LEU78      -0.1245
     16  CA       -40.4660   62.4910   -3.7050 C.3    78  LEU78       0.1561
     17  C        -40.3080   61.5320   -4.8650 C.2    78  LEU78       0.2260
     18  O        -40.4650   61.9110   -6.0160 O.2    78  LEU78      -0.2867
     19  CB       -41.9440   62.7890   -3.4880 C.3    78  LEU78       0.0270
     20  CG       -42.7680   61.5910   -3.0400 C.3    78  LEU78       0.0019
     21  CD1      -43.9700   62.0940   -2.3560 C.3    78  LEU78       0.0001
     22  CD2      -43.1710   60.7340   -4.2070 C.3    78  LEU78       0.0001
     23  N        -41.4750   54.0380   -1.7820 N.3    98  ALA98      -0.1231
     24  CA       -41.4610   55.4770   -1.9730 C.3    98  ALA98       0.1694
     25  C        -40.4190   56.0900   -1.0580 C.2    98  ALA98       0.2593
     26  O        -40.0770   55.5130   -0.0260 O.2    98  ALA98      -0.2718
     27  CB       -42.8270   56.0520   -1.6750 C.3    98  ALA98       0.0304
     28  N        -39.9120   57.2600   -1.4300 N.am   99  SER99      -0.1938
     29  CA       -38.9040   57.9070   -0.6060 C.3    99  SER99       0.2055
     30  C        -38.8970   59.4210   -0.7330 C.2    99  SER99       0.2642
     31  O        -38.8480   59.9570   -1.8450 O.2    99  SER99      -0.2714
     32  CB       -37.5140   57.3770   -0.9620 C.3    99  SER99       0.2130
     33  OG       -36.7400   58.3740   -1.6050 O.3    99  SER99      -0.2179
     34  N        -38.9440   60.1000    0.4110 N.am  100  LEU100     -0.1977
     35  CA       -38.9080   61.5540    0.4380 C.3   100  LEU100      0.1596
     36  C        -37.5210   61.9180    0.9450 C.2   100  LEU100      0.2287
     37  O        -37.1440   61.5150    2.0410 O.2   100  LEU100     -0.2864
     38  CB       -39.9660   62.1150    1.3960 C.3   100  LEU100      0.0297
     39  CG       -40.1720   63.6410    1.3260 C.3   100  LEU100      0.0022
     40  CD1      -40.9090   63.9690    0.0280 C.3   100  LEU100      0.0001
     41  CD2      -40.9620   64.1590    2.5280 C.3   100  LEU100      0.0001
     42  N        -35.8410   59.6770    3.6600 N.3   189  LEU189     -0.1231
     43  CA       -36.8070   58.7790    4.2770 C.3   189  LEU189      0.1693
     44  C        -37.2960   57.7960    3.2290 C.2   189  LEU189      0.2592
     45  O        -38.0040   58.1800    2.3010 O.2   189  LEU189     -0.2718
     46  CB       -37.9690   59.6090    4.8380 C.3   189  LEU189      0.0284
     47  CG       -38.9660   59.0000    5.8240 C.3   189  LEU189      0.0019
     48  CD1      -38.2110   58.4730    7.0280 C.3   189  LEU189      0.0001
     49  CD2      -39.9850   60.0480    6.2510 C.3   189  LEU189      0.0001
     50  N        -36.9180   56.5260    3.3700 N.am  190  VAL190     -0.1966
     51  CA       -37.3150   55.5200    2.3870 C.3   190  VAL190      0.1727
     52  C        -38.1790   54.3980    2.9190 C.2   190  VAL190      0.2617
     53  O        -38.1980   54.1140    4.1070 O.2   190  VAL190     -0.2715
     54  CB       -36.0900   54.9210    1.6820 C.3   190  VAL190      0.0290
     55  CG1      -36.5270   54.1220    0.4660 C.3   190  VAL190      0.0023
     56  CG2      -35.1460   56.0330    1.2830 C.3   190  VAL190      0.0023
     57  N        -38.8610   53.7180    2.0120 N.am  191  SER191     -0.1936
     58  CA       -39.7750   52.6940    2.4460 C.3   191  SER191      0.2055
     59  C        -40.3000   51.7380    1.3780 C.2   191  SER191      0.2643
     60  O        -40.5960   52.1470    0.2500 O.2   191  SER191     -0.2714
     61  CB       -40.9360   53.4020    3.0890 C.3   191  SER191      0.2130
     62  OG       -42.1790   52.8700    2.6410 O.3   191  SER191     -0.2179
     63  N        -40.4530   50.4710    1.7590 N.am  192  GLY192     -0.1954
     64  CA       -40.9530   49.4680    0.8340 C.3   192  GLY192      0.1869
     65  C        -40.5030   48.0530    1.1390 C.2   192  GLY192      0.2309
     66  O        -40.4670   47.6280    2.3020 O.2   192  GLY192     -0.2863
     67  N        -40.5810   43.7130    4.0750 N.3   201  VAL201     -0.1231
     68  CA       -40.8160   45.1400    4.2300 C.3   201  VAL201      0.1692
     69  C        -39.7040   45.7440    5.0790 C.2   201  VAL201      0.2592
     70  O        -39.1140   45.0680    5.9280 O.2   201  VAL201     -0.2718
     71  CB       -42.1650   45.4050    4.9140 C.3   201  VAL201      0.0266
     72  CG1      -42.6470   46.7830    4.5730 C.3   201  VAL201      0.0020
     73  CG2      -43.1800   44.3610    4.4830 C.3   201  VAL201      0.0020
     74  N        -39.4120   47.0140    4.8350 N.am  202  PHE202     -0.1962
     75  CA       -38.3840   47.7180    5.5890 C.3   202  PHE202      0.1771
     76  C        -38.6800   49.2120    5.5750 C.2   202  PHE202      0.2619
     77  O        -39.5620   49.6870    4.8470 O.2   202  PHE202     -0.2715
     78  CB       -37.0070   47.4800    4.9660 C.3   202  PHE202      0.0574
     79  CG       -36.7500   48.2920    3.7220 C.ar  202  PHE202     -0.0200
     80  CD1      -36.3650   49.6280    3.8070 C.ar  202  PHE202     -0.0042
     81  CD2      -36.9120   47.7240    2.4640 C.ar  202  PHE202     -0.0042
     82  CE1      -36.1480   50.3850    2.6640 C.ar  202  PHE202     -0.0003
     83  CE2      -36.6950   48.4750    1.3060 C.ar  202  PHE202     -0.0003
     84  CZ       -36.3130   49.8100    1.4080 C.ar  202  PHE202     -0.0000
     85  N        -37.9260   49.9520    6.3770 N.am  203  ALA203     -0.1977
     86  CA       -38.0600   51.3960    6.4420 C.3   203  ALA203      0.1597
     87  C        -36.6940   51.9230    6.8550 C.2   203  ALA203      0.2287
     88  O        -36.0560   51.3740    7.7490 O.2   203  ALA203     -0.2864
     89  CB       -39.1110   51.7660    7.4540 C.3   203  ALA203      0.0319
@<TRIPOS>BOND
     1    18    17    2
     2    17    16    1
     3    22    20    1
     4    15    16    1
     5    16    19    1
     6    19    20    1
     7    20    21    1
     8    24    23    1
     9    24    27    1
    10    24    25    1
    11    31    30    2
    12    33    32    1
    13    28    25   am
    14    28    29    1
    15    25    26    2
    16    32    29    1
    17    30    29    1
    18    30    34   am
    19     1     2    1
    20    40    39    1
    21    60    59    2
    22    34    35    1
    23    35    36    1
    24    35    38    1
    25    55    54    1
    26     3     2    1
    27     3     4    2
    28     2     5    1
    29    64    65    1
    30    64    63    1
    31     5     6    1
    32    36    37    2
    33    65    66    2
    34    56    54    1
    35    83    84   ar
    36    83    81   ar
    37    39    38    1
    38    39    41    1
    39    59    63   am
    40    59    58    1
    41    84    82   ar
    42    54    51    1
    43    57    58    1
    44    57    52   am
    45    11     8   ar
    46    11    13   ar
    47     6     8   ar
    48     6     7   ar
    49    45    44    2
    50    51    52    1
    51    51    50    1
    52    58    61    1
    53    81    79   ar
    54    62    61    1
    55    82    80   ar
    56     8    10   ar
    57    13    14   ar
    58    52    53    2
    59    44    50   am
    60    44    43    1
    61     7     9   ar
    62    42    43    1
    63    79    80   ar
    64    79    78    1
    65    67    68    1
    66    10     9   ar
    67    10    12   ar
    68    68    71    1
    69    68    69    1
    70    43    46    1
    71    14    12   ar
    72    73    71    1
    73    72    71    1
    74    74    69   am
    75    74    75    1
    76    46    47    1
    77    77    76    2
    78    78    75    1
    79    69    70    2
    80    76    75    1
    81    76    85   am
    82    47    49    1
    83    47    48    1
    84    85    86    1
    85    86    87    1
    86    86    89    1
    87    87    88    2
