@<TRIPOS>MOLECULE
tmp/2vqjA00.pdb
 128 125 0 0 0
SMALL
GASTEIGER

@<TRIPOS>ATOM
      1  N          7.5280   80.7490   28.5930 N.3    32  ARG32      -0.1245
      2  CA         8.3210   81.9530   28.3550 C.3    32  ARG32       0.1563
      3  C          8.2390   82.4680   26.9170 C.2    32  ARG32       0.2260
      4  O          7.8230   83.6100   26.6940 O.2    32  ARG32      -0.2867
      5  CB         9.7810   81.6890   28.7380 C.3    32  ARG32       0.0307
      6  CG         9.9680   81.3940   30.2230 C.3    32  ARG32       0.0489
      7  CD        11.2440   80.6340   30.4930 C.3    32  ARG32       0.2205
      8  NE        12.4050   81.4110   30.0990 N.pl3  32  ARG32      -0.0865
      9  CZ        13.2710   81.0940   29.1410 C.cat  32  ARG32       0.5346
     10  NH1       13.1580   79.9870   28.4210 N.pl3  32  ARG32       0.1354
     11  NH2       14.2850   81.9130   28.9090 N.pl3  32  ARG32       0.1354
     12  N         17.6200   77.6220   26.6310 N.3   151  PRO151     -0.2116
     13  CA        18.8860   78.3700   26.5220 C.3   151  PRO151      0.1372
     14  C         19.9970   77.4690   26.0360 C.2   151  PRO151      0.2244
     15  O         19.8140   76.2540   26.0120 O.2   151  PRO151     -0.2868
     16  CB        19.1800   78.8180   27.9600 C.3   151  PRO151      0.0268
     17  CG        17.9800   78.5470   28.7490 C.3   151  PRO151      0.0207
     18  CD        17.0730   77.6370   27.9990 C.3   151  PRO151      0.0892
     19  N         23.8370   78.6150   26.5250 N.3   153  HIS153     -0.1226
     20  CA        25.1920   79.1290   26.8130 C.3   153  HIS153      0.1752
     21  C         26.0040   78.4030   27.8920 C.2   153  HIS153      0.2596
     22  O         27.2290   78.5900   27.9760 O.2   153  HIS153     -0.2718
     23  CB        25.1560   80.6550   27.0460 C.3   153  HIS153      0.0759
     24  CG        24.5300   81.0830   28.3390 C.ar  153  HIS153      0.0818
     25  ND1       24.9310   82.2200   29.0080 N.ar  153  HIS153     -0.2268
     26  CD2       23.5400   80.5370   29.0860 C.ar  153  HIS153      0.1154
     27  CE1       24.2080   82.3580   30.1030 C.ar  153  HIS153      0.1986
     28  NE2       23.3620   81.3490   30.1760 N.ar  153  HIS153     -0.2212
     29  N         25.3460   77.5520   28.6780 N.am  154  HIS154     -0.1975
     30  CA        26.0330   76.7080   29.6570 C.3   154  HIS154      0.1656
     31  C         26.4450   75.3570   29.0680 C.2   154  HIS154      0.2291
     32  O         27.2570   74.6600   29.6750 O.2   154  HIS154     -0.2864
     33  CB        25.1530   76.3990   30.8820 C.3   154  HIS154      0.0771
     34  CG        24.6650   77.6020   31.6270 C.ar  154  HIS154      0.0820
     35  ND1       25.5120   78.5390   32.1700 N.ar  154  HIS154     -0.2267
     36  CD2       23.4130   77.9690   31.9920 C.ar  154  HIS154      0.1154
     37  CE1       24.8010   79.4570   32.8030 C.ar  154  HIS154      0.1986
     38  NE2       23.5230   79.1330   32.7120 N.ar  154  HIS154     -0.2212
     39  N         22.6080   73.3620   33.2440 N.3   162  GLY162     -0.1210
     40  CA        21.8380   74.5890   33.3970 C.3   162  GLY162      0.1956
     41  C         20.7220   74.7110   32.3750 C.2   162  GLY162      0.2612
     42  O         20.4860   75.7860   31.8500 O.2   162  GLY162     -0.2717
     43  N         20.0440   73.6000   32.0930 N.am  163  PHE163     -0.1962
     44  CA        18.9120   73.5590   31.1510 C.3   163  PHE163      0.1771
     45  C         19.3440   73.6830   29.6840 C.2   163  PHE163      0.2619
     46  O         18.5100   73.8720   28.8010 O.2   163  PHE163     -0.2715
     47  CB        17.8530   74.6220   31.4860 C.3   163  PHE163      0.0574
     48  CG        17.4160   74.6160   32.9260 C.ar  163  PHE163     -0.0200
     49  CD1       17.7820   75.6380   33.7820 C.ar  163  PHE163     -0.0042
     50  CD2       16.6410   73.5840   33.4220 C.ar  163  PHE163     -0.0042
     51  CE1       17.3840   75.6280   35.1190 C.ar  163  PHE163     -0.0003
     52  CE2       16.2470   73.5650   34.7540 C.ar  163  PHE163     -0.0003
     53  CZ        16.6170   74.5930   35.5990 C.ar  163  PHE163     -0.0000
     54  N         20.6400   73.5470   29.4310 N.am  164  CYS164     -0.1968
     55  CA        21.2020   73.7070   28.0960 C.3   164  CYS164      0.1712
     56  C         21.7000   72.3770   27.5660 C.2   164  CYS164      0.2296
     57  O         22.5010   71.7000   28.2280 O.2   164  CYS164     -0.2864
     58  CB        22.3720   74.6910   28.1220 C.3   164  CYS164      0.0983
     59  SG        21.9180   76.3110   28.7670 S.3   164  CYS164     -0.0798
     60  N         23.0340   87.5610   29.9860 N.3   191  ASP191     -0.1239
     61  CA        22.3620   86.6980   30.9540 C.3   191  ASP191      0.1674
     62  C         23.0910   86.8920   32.2830 C.2   191  ASP191      0.2266
     63  O         24.3190   87.0540   32.2930 O.2   191  ASP191     -0.2867
     64  CB        22.4530   85.2580   30.4650 C.3   191  ASP191      0.1410
     65  CG        21.6400   84.2970   31.2990 C.2   191  ASP191      0.3668
     66  OD1       20.5040   83.9580   30.8900 O.co2 191  ASP191     -0.2456
     67  OD2       22.1370   83.8850   32.3610 O.co2 191  ASP191     -0.2456
     68  N         24.0160   84.8500   34.4890 N.3   193  HIS193     -0.1241
     69  CA        24.9430   83.7460   34.7760 C.3   193  HIS193      0.1621
     70  C         26.0050   83.6530   33.7090 C.2   193  HIS193      0.2264
     71  O         25.7370   83.9100   32.5320 O.2   193  HIS193     -0.2867
     72  CB        24.1950   82.4080   34.8500 C.3   193  HIS193      0.0745
     73  CG        23.0440   82.4180   35.7980 C.ar  193  HIS193      0.0817
     74  ND1       21.7600   82.7130   35.3950 N.ar  193  HIS193     -0.2268
     75  CD2       22.9840   82.1930   37.1320 C.ar  193  HIS193      0.1154
     76  CE1       20.9590   82.6800   36.4490 C.ar  193  HIS193      0.1986
     77  NE2       21.6740   82.3510   37.5090 N.ar  193  HIS193     -0.2212
     78  N         25.9720   80.3640   40.4700 N.3   222  PHE222     -0.1241
     79  CA        25.9480   79.4430   39.3290 C.3   222  PHE222      0.1605
     80  C         26.3650   80.1320   38.0220 C.2   222  PHE222      0.2264
     81  O         25.9270   81.2650   37.7640 O.2   222  PHE222     -0.2867
     82  CB        24.5440   78.8540   39.1580 C.3   222  PHE222      0.0534
     83  CG        24.4320   77.8490   38.0340 C.ar  222  PHE222     -0.0203
     84  CD1       24.6640   76.4990   38.2690 C.ar  222  PHE222     -0.0042
     85  CD2       24.0820   78.2560   36.7490 C.ar  222  PHE222     -0.0042
     86  CE1       24.5650   75.5700   37.2530 C.ar  222  PHE222     -0.0003
     87  CE2       23.9730   77.3280   35.7170 C.ar  222  PHE222     -0.0003
     88  CZ        24.2200   75.9790   35.9690 C.ar  222  PHE222     -0.0000
     89  N         17.4630   87.4460   33.0560 N.3   285  ASP285     -0.1239
     90  CA        17.3760   87.1610   34.4820 C.3   285  ASP285      0.1674
     91  C         18.0230   88.2210   35.3930 C.2   285  ASP285      0.2266
     92  O         17.8510   88.1720   36.6130 O.2   285  ASP285     -0.2867
     93  CB        17.8500   85.7190   34.8170 C.3   285  ASP285      0.1410
     94  CG        19.1310   85.3200   34.1180 C.2   285  ASP285      0.3668
     95  OD1       19.7450   86.1820   33.4520 O.co2 285  ASP285     -0.2456
     96  OD2       19.5280   84.1220   34.2350 O.co2 285  ASP285     -0.2456
     97  N         18.4990   83.8250   44.6170 N.3   293  PRO293     -0.2102
     98  CA        19.1780   82.6470   44.0720 C.3   293  PRO293      0.1504
     99  C         19.2150   82.6110   42.5370 C.2   293  PRO293      0.2575
    100  O         20.2760   82.3530   41.9620 O.2   293  PRO293     -0.2718
    101  CB        18.3730   81.4760   44.6440 C.3   293  PRO293      0.0282
    102  CG        17.0420   82.0310   44.9160 C.3   293  PRO293      0.0208
    103  CD        17.2280   83.4760   45.2770 C.3   293  PRO293      0.0893
    104  N         18.0810   82.8760   41.8900 N.am  294  LEU294     -0.1980
    105  CA        18.0050   82.8630   40.4260 C.3   294  LEU294      0.1596
    106  C         18.7210   84.0620   39.8040 C.2   294  LEU294      0.2287
    107  O         19.4170   83.9110   38.8120 O.2   294  LEU294     -0.2864
    108  CB        16.5430   82.8590   39.9500 C.3   294  LEU294      0.0297
    109  CG        16.2900   82.8940   38.4270 C.3   294  LEU294      0.0022
    110  CD1       17.0410   81.7720   37.7240 C.3   294  LEU294      0.0001
    111  CD2       14.7860   82.8210   38.0970 C.3   294  LEU294      0.0001
    112  N         18.2300   83.6160   26.2130 N.3   324  GLU324     -0.1231
    113  CA        18.8660   82.6330   27.0700 C.3   324  GLU324      0.1699
    114  C         17.9470   82.4840   28.2790 C.2   324  GLU324      0.2593
    115  O         16.8110   82.0620   28.1010 O.2   324  GLU324     -0.2718
    116  CB        20.2720   83.0890   27.4590 C.3   324  GLU324      0.0402
    117  CG        21.2030   83.2700   26.2940 C.3   324  GLU324      0.1161
    118  CD        21.7280   81.9600   25.7130 C.2   324  GLU324      0.3649
    119  OE1       21.3460   80.8690   26.2020 O.co2 324  GLU324     -0.2457
    120  OE2       22.5280   82.0240   24.7550 O.co2 324  GLU324     -0.2457
    121  N         18.4140   82.8570   29.4750 N.am  325  GLY325     -0.1942
    122  CA        17.6170   82.8190   30.6960 C.3   325  GLY325      0.2014
    123  C         16.6750   83.9820   30.9160 C.2   325  GLY325      0.2639
    124  O         16.4130   84.7890   30.0190 O.2   325  GLY325     -0.2714
    125  N         16.1540   84.0610   32.1330 N.am  326  GLY326     -0.1954
    126  CA        15.0350   84.9430   32.4390 C.3   326  GLY326      0.1869
    127  C         13.8090   84.0720   32.6350 C.2   326  GLY326      0.2309
    128  O         13.6000   83.1360   31.8810 O.2   326  GLY326     -0.2863
@<TRIPOS>BOND
     1   120   118   ar
     2   118   119   ar
     3   118   117    1
     4    15    14    2
     5    14    13    1
     6   112   113    1
     7   117   116    1
     8    13    12    1
     9    13    16    1
    10    19    20    1
    11    12    18    1
    12     4     3    2
    13    20    23    1
    14    20    21    1
    15     3     2    1
    16    23    24    1
    17   113   116    1
    18   113   114    1
    19    56    55    1
    20    56    57    2
    21    21    22    2
    22    21    29   am
    23    16    17    1
    24    18    17    1
    25    55    58    1
    26    55    54    1
    27   115   114    2
    28    58    59    1
    29   114   121   am
    30    24    25   ar
    31    24    26   ar
    32     2     1    1
    33     2     5    1
    34    10     9    1
    35    29    30    1
    36     5     6    1
    37    46    45    2
    38    11     9    1
    39    25    27   ar
    40    31    30    1
    41    31    32    2
    42    26    28   ar
    43     9     8    2
    44    54    45   am
    45   121   122    1
    46    30    33    1
    47    45    44    1
    48    60    61    1
    49   124   123    2
    50     8     7    1
    51    27    28   ar
    52     6     7    1
    53    64    61    1
    54    64    65    1
    55   122   123    1
    56    33    34    1
    57    66    65   ar
    58   123   125   am
    59    61    62    1
    60    44    47    1
    61    44    43    1
    62    65    67   ar
    63    47    48    1
    64    34    36   ar
    65    34    35   ar
    66    42    41    2
    67   128   127    2
    68    36    38   ar
    69    43    41   am
    70   125   126    1
    71    35    37   ar
    72    62    63    2
    73    41    40    1
    74   126   127    1
    75    71    70    2
    76    38    37   ar
    77    48    50   ar
    78    48    49   ar
    79    89    90    1
    80    39    40    1
    81    50    52   ar
    82    95    94   ar
    83    70    69    1
    84    49    51   ar
    85    94    96   ar
    86    94    93    1
    87    90    93    1
    88    90    91    1
    89    68    69    1
    90    52    53   ar
    91    69    72    1
    92    72    73    1
    93    51    53   ar
    94    91    92    2
    95    74    73   ar
    96    74    76   ar
    97    87    88   ar
    98    87    85   ar
    99    73    75   ar
   100    88    86   ar
   101    76    77   ar
   102    85    83   ar
   103    75    77   ar
   104    86    84   ar
   105   110   109    1
   106    81    80    2
   107    80    79    1
   108    83    84   ar
   109    83    82    1
   110   111   109    1
   111   109   108    1
   112   107   106    2
   113    82    79    1
   114    79    78    1
   115   106   105    1
   116   108   105    1
   117   105   104    1
   118   104    99   am
   119   100    99    2
   120    99    98    1
   121    98    97    1
   122    98   101    1
   123    97   103    1
   124   101   102    1
   125   102   103    1
