@<TRIPOS>MOLECULE
tmp/2vqoB00.pdb
 79 75 0 0 0
SMALL
GASTEIGER

@<TRIPOS>ATOM
      1  N         10.2990   17.2860   26.2570 N.3    59  LEU59      -0.1231
      2  CA        10.4270   16.1150   27.1190 C.3    59  LEU59       0.1693
      3  C         11.8700   15.9060   27.5900 C.2    59  LEU59       0.2592
      4  O         12.1310   15.8920   28.7930 O.2    59  LEU59      -0.2718
      5  CB         9.9000   14.8640   26.4080 C.3    59  LEU59       0.0284
      6  CG         9.7660   13.5600   27.2150 C.3    59  LEU59       0.0019
      7  CD1       11.0580   12.8020   27.2080 C.3    59  LEU59       0.0001
      8  CD2        9.3050   13.7890   28.6520 C.3    59  LEU59       0.0001
      9  N         12.8060   15.7780   26.6490 N.am   60  TYR60      -0.1976
     10  CA        14.2040   15.4660   26.9890 C.3    60  TYR60       0.1639
     11  C         15.0870   16.6960   27.2170 C.2    60  TYR60       0.2290
     12  O         16.1520   16.5850   27.8290 O.2    60  TYR60      -0.2864
     13  CB        14.8360   14.5640   25.9180 C.3    60  TYR60       0.0560
     14  CG        14.1270   13.2340   25.7490 C.ar   60  TYR60      -0.0198
     15  CD1       13.2590   13.0230   24.6890 C.ar   60  TYR60      -0.0009
     16  CD2       14.3160   12.1950   26.6620 C.ar   60  TYR60      -0.0009
     17  CE1       12.6030   11.8220   24.5310 C.ar   60  TYR60       0.0417
     18  CE2       13.6600   10.9820   26.5100 C.ar   60  TYR60       0.0417
     19  CZ        12.8040   10.8050   25.4410 C.ar   60  TYR60       0.1957
     20  OH        12.1370    9.6200   25.2670 O.3    60  TYR60      -0.2866
     21  N         14.2820   19.6780   28.8920 N.3    62  THR62      -0.1218
     22  CA        14.0760   20.4630   30.1170 C.3    62  THR62       0.1862
     23  C         14.2380   19.6350   31.3890 C.2    62  THR62       0.2287
     24  O         13.8400   18.4710   31.4430 O.2    62  THR62      -0.2866
     25  CB        12.6900   21.1420   30.1240 C.3    62  THR62       0.1770
     26  OG1       11.6610   20.1560   29.9890 O.3    62  THR62      -0.2211
     27  CG2       12.5870   22.1370   28.9790 C.3    62  THR62       0.0375
     28  N         13.3950   18.2000   34.8850 N.3    64  PRO64      -0.2116
     29  CA        12.1760   17.9930   35.6800 C.3    64  PRO64       0.1372
     30  C         12.1360   18.8160   36.9690 C.2    64  PRO64       0.2244
     31  O         11.0500   19.1760   37.4240 O.2    64  PRO64      -0.2868
     32  CB        12.2130   16.4950   36.0150 C.3    64  PRO64       0.0268
     33  CG        13.1250   15.8910   35.0280 C.3    64  PRO64       0.0207
     34  CD        14.1330   16.9390   34.6820 C.3    64  PRO64       0.0892
     35  N         17.2930    5.7830   37.1570 N.3    70  ILE70      -0.1245
     36  CA        16.6970    6.4810   36.0060 C.3    70  ILE70       0.1561
     37  C         17.2250    7.9160   35.8500 C.2    70  ILE70       0.2260
     38  O         17.1430    8.5010   34.7680 O.2    70  ILE70      -0.2867
     39  CB        15.1340    6.5130   36.1190 C.3    70  ILE70       0.0252
     40  CG1       14.4830    6.9760   34.8080 C.3    70  ILE70       0.0019
     41  CG2       14.6830    7.3950   37.2900 C.3    70  ILE70       0.0019
     42  CD1       12.9760    6.8530   34.8020 C.3    70  ILE70       0.0001
     43  N         19.8890    8.5930   33.2480 N.3    73  GLU73      -0.1231
     44  CA        19.3580    8.8920   31.9170 C.3    73  GLU73       0.1699
     45  C         18.8650   10.3320   31.7810 C.2    73  GLU73       0.2592
     46  O         18.8930   10.8940   30.6840 O.2    73  GLU73      -0.2718
     47  CB        18.2290    7.9210   31.5550 C.3    73  GLU73       0.0402
     48  CG        18.6440    6.8370   30.5870 C.3    73  GLU73       0.1161
     49  CD        19.7920    5.9970   31.0920 C.2    73  GLU73       0.3649
     50  OE1       19.7000    5.4530   32.2160 O.co2  73  GLU73      -0.2457
     51  OE2       20.7890    5.8810   30.3530 O.co2  73  GLU73      -0.2457
     52  N         18.3910   10.9060   32.8870 N.am   74  VAL74      -0.1980
     53  CA        18.0300   12.3210   32.9350 C.3    74  VAL74       0.1595
     54  C         19.2710   13.2030   32.7640 C.2    74  VAL74       0.2287
     55  O         19.2520   14.1670   32.0020 O.2    74  VAL74      -0.2864
     56  CB        17.2860   12.6700   34.2500 C.3    74  VAL74       0.0276
     57  CG1       17.1840   14.1700   34.4370 C.3    74  VAL74       0.0022
     58  CG2       15.8940   12.0320   34.2510 C.3    74  VAL74       0.0022
     59  N         20.5170   13.0160   28.9830 N.3    77  ALA77      -0.1231
     60  CA        19.7330   13.8770   28.0940 C.3    77  ALA77       0.1694
     61  C         20.1050   15.3520   28.3090 C.2    77  ALA77       0.2592
     62  O         20.1090   16.1360   27.3610 O.2    77  ALA77      -0.2718
     63  CB        18.2430   13.6630   28.3060 C.3    77  ALA77       0.0304
     64  N         20.4260   15.7160   29.5530 N.am   78  GLY78      -0.1957
     65  CA        20.8800   17.0680   29.8680 C.3    78  GLY78       0.1869
     66  C         22.2620   17.3220   29.2820 C.2    78  GLY78       0.2309
     67  O         22.5270   18.3920   28.7260 O.2    78  GLY78      -0.2863
     68  N         20.2140   11.4330   22.0000 N.3   123  TYR123     -0.1241
     69  CA        19.0440   12.2260   22.3490 C.3   123  TYR123      0.1605
     70  C         18.8270   13.3410   21.3410 C.2   123  TYR123      0.2264
     71  O         17.7360   13.4840   20.7990 O.2   123  TYR123     -0.2867
     72  CB        19.1920   12.7950   23.7580 C.3   123  TYR123      0.0534
     73  CG        18.9750   11.7390   24.8050 C.ar  123  TYR123     -0.0201
     74  CD1       20.0480   11.0520   25.3650 C.ar  123  TYR123     -0.0009
     75  CD2       17.6900   11.3930   25.2060 C.ar  123  TYR123     -0.0009
     76  CE1       19.8460   10.0580   26.3090 C.ar  123  TYR123      0.0417
     77  CE2       17.4760   10.4050   26.1600 C.ar  123  TYR123      0.0417
     78  CZ        18.5580    9.7420   26.7050 C.ar  123  TYR123      0.1957
     79  OH        18.3450    8.7640   27.6460 O.3   123  TYR123     -0.2866
@<TRIPOS>BOND
     1    71    70    2
     2    70    69    1
     3    68    69    1
     4    69    72    1
     5    72    73    1
     6    17    15   ar
     7    17    19   ar
     8    15    14   ar
     9    73    75   ar
    10    73    74   ar
    11    75    77   ar
    12    20    19    1
    13    74    76   ar
    14    19    18   ar
    15    14    13    1
    16    14    16   ar
    17    13    10    1
    18    77    78   ar
    19     1     2    1
    20    76    78   ar
    21     5     2    1
    22     5     6    1
    23    18    16   ar
    24     9    10    1
    25     9     3   am
    26    78    79    1
    27    10    11    1
    28     2     3    1
    29     7     6    1
    30     6     8    1
    31    11    12    2
    32    62    61    2
    33     3     4    2
    34    60    63    1
    35    60    61    1
    36    60    59    1
    37    61    64   am
    38    67    66    2
    39    21    22    1
    40    27    25    1
    41    66    65    1
    42    64    65    1
    43    26    25    1
    44    22    25    1
    45    22    23    1
    46    51    49   ar
    47    48    49    1
    48    48    47    1
    49    46    45    2
    50    49    50   ar
    51    23    24    2
    52    47    44    1
    53    45    44    1
    54    45    52   am
    55    44    43    1
    56    55    54    2
    57    54    53    1
    58    52    53    1
    59    53    56    1
    60    56    58    1
    61    56    57    1
    62    34    28    1
    63    34    33    1
    64    38    37    2
    65    42    40    1
    66    40    39    1
    67    28    29    1
    68    33    32    1
    69    29    32    1
    70    29    30    1
    71    37    36    1
    72    36    39    1
    73    36    35    1
    74    39    41    1
    75    30    31    2
