@<TRIPOS>MOLECULE
tmp/2vqtA00.pdb
 158 162 0 0 0
SMALL
GASTEIGER

@<TRIPOS>ATOM
      1  N         36.2570   52.1450   -0.0250 N.3   151  ASN151     -0.1240
      2  CA        35.2630   52.7890    0.8170 C.3   151  ASN151      0.1653
      3  C         35.8930   53.4970    1.9960 C.2   151  ASN151      0.2266
      4  O         35.2110   54.1870    2.7020 O.2   151  ASN151     -0.2867
      5  CB        34.2100   51.7910    1.2670 C.3   151  ASN151      0.1155
      6  CG        33.3160   51.3850    0.1420 C.2   151  ASN151      0.2627
      7  OD1       32.4590   52.1690   -0.2860 O.2   151  ASN151     -0.2716
      8  ND2       33.5460   50.2130   -0.4020 N.am  151  ASN151     -0.0877
      9  N         31.7600   54.9610    3.5930 N.3   171  TRP171     -0.1227
     10  CA        31.1910   53.8960    2.7600 C.3   171  TRP171      0.1737
     11  C         30.4020   54.5480    1.6380 C.2   171  TRP171      0.2595
     12  O         30.2520   55.7640    1.6450 O.2   171  TRP171     -0.2718
     13  CB        30.3400   52.8690    3.5500 C.3   171  TRP171      0.0564
     14  CG        30.4960   51.4700    2.8870 C.ar  171  TRP171      0.0003
     15  CD1       29.6680   50.8950    1.9490 C.ar  171  TRP171      0.0946
     16  CD2       31.5430   50.5110    3.1370 C.ar  171  TRP171      0.0152
     17  NE1       30.1650   49.6580    1.5540 N.ar  171  TRP171     -0.2442
     18  CE2       31.3330   49.4160    2.2550 C.ar  171  TRP171      0.0810
     19  CE3       32.6510   50.4800    4.0160 C.ar  171  TRP171      0.0012
     20  CZ2       32.1920   48.2980    2.2250 C.ar  171  TRP171      0.0191
     21  CZ3       33.5110   49.3830    3.9670 C.ar  171  TRP171      0.0001
     22  CH2       33.2720   48.2970    3.0690 C.ar  171  TRP171      0.0015
     23  N         29.8980   53.7900    0.6600 N.am  172  ASP172     -0.1960
     24  CA        29.2370   54.4530   -0.4940 C.3   172  ASP172      0.1840
     25  C         27.8040   54.9570   -0.1840 C.2   172  ASP172      0.2622
     26  O         27.1690   55.5250   -1.0490 O.2   172  ASP172     -0.2715
     27  CB        29.2870   53.6140   -1.7590 C.3   172  ASP172      0.1450
     28  CG        28.6930   52.2150   -1.5560 C.2   172  ASP172      0.3671
     29  OD1       28.0200   51.9800   -0.5090 O.co2 172  ASP172     -0.2456
     30  OD2       28.8810   51.3610   -2.4390 O.co2 172  ASP172     -0.2456
     31  N         27.3780   54.8810    1.0790 N.am  173  TRP173     -0.1974
     32  CA        26.1560   55.5500    1.5930 C.3   173  TRP173      0.1640
     33  C         26.4690   56.2630    2.8960 C.2   173  TRP173      0.2290
     34  O         25.5710   56.6590    3.6490 O.2   173  TRP173     -0.2864
     35  CB        25.0270   54.4990    1.8850 C.3   173  TRP173      0.0576
     36  CG        25.5950   53.1490    2.4050 C.ar  173  TRP173      0.0006
     37  CD1       25.7160   51.9790    1.6950 C.ar  173  TRP173      0.0946
     38  CD2       26.1280   52.8700    3.7250 C.ar  173  TRP173      0.0152
     39  NE1       26.2900   50.9880    2.4940 N.ar  173  TRP173     -0.2442
     40  CE2       26.5220   51.4970    3.7400 C.ar  173  TRP173      0.0810
     41  CE3       26.2730   53.6360    4.9060 C.ar  173  TRP173      0.0012
     42  CZ2       27.1000   50.8950    4.8560 C.ar  173  TRP173      0.0191
     43  CZ3       26.8570   53.0270    6.0440 C.ar  173  TRP173      0.0001
     44  CH2       27.2520   51.6510    6.0010 C.ar  173  TRP173      0.0015
     45  N         25.4500   42.8650    7.5150 N.3   367  TRP367     -0.1241
     46  CA        26.5090   42.9520    6.5420 C.3   367  TRP367      0.1605
     47  C         27.8660   43.3500    7.1780 C.2   367  TRP367      0.2264
     48  O         27.9430   44.0950    8.1790 O.2   367  TRP367     -0.2867
     49  CB        26.0150   43.9000    5.4230 C.3   367  TRP367      0.0550
     50  CG        27.0290   44.5570    4.5950 C.ar  367  TRP367      0.0003
     51  CD1       27.4280   44.1640    3.3690 C.ar  367  TRP367      0.0946
     52  CD2       27.6940   45.8000    4.8710 C.ar  367  TRP367      0.0152
     53  NE1       28.3790   45.0520    2.8740 N.ar  367  TRP367     -0.2442
     54  CE2       28.5520   46.0630    3.7860 C.ar  367  TRP367      0.0810
     55  CE3       27.6860   46.6920    5.9540 C.ar  367  TRP367      0.0012
     56  CZ2       29.3850   47.1790    3.7480 C.ar  367  TRP367      0.0191
     57  CZ3       28.5110   47.8030    5.9040 C.ar  367  TRP367      0.0001
     58  CH2       29.3330   48.0370    4.8090 C.ar  367  TRP367      0.0015
     59  N         34.8730   43.8320    1.3980 N.3   396  CYS396     -0.1235
     60  CA        35.3190   44.4400    0.1400 C.3   396  CYS396      0.1677
     61  C         36.8180   44.4820   -0.1270 C.2   396  CYS396      0.2270
     62  O         37.2280   44.5460   -1.2920 O.2   396  CYS396     -0.2867
     63  CB        34.6830   45.7940   -0.1020 C.3   396  CYS396      0.0956
     64  SG        32.8970   45.6800   -0.2920 S.3   396  CYS396     -0.0801
     65  N         32.0690   40.1160    3.3390 N.3   433  ASN433     -0.1225
     66  CA        31.3380   40.5990    2.1810 C.3   433  ASN433      0.1785
     67  C         32.2940   40.7650    1.0220 C.2   433  ASN433      0.2597
     68  O         33.1150   41.6910    1.0430 O.2   433  ASN433     -0.2718
     69  CB        30.6920   41.9800    2.4880 C.3   433  ASN433      0.1169
     70  CG        29.9350   42.5320    1.2930 C.2   433  ASN433      0.2627
     71  OD1       28.9790   41.9100    0.8250 O.2   433  ASN433     -0.2716
     72  ND2       30.3530   43.6900    0.7970 N.am  433  ASN433     -0.0877
     73  N         32.1620   39.9210   -0.0040 N.am  434  GLU434     -0.1979
     74  CA        32.7630   40.2150   -1.3240 C.3   434  GLU434      0.1602
     75  C         34.2790   40.2080   -1.4460 C.2   434  GLU434      0.2287
     76  O         34.8050   40.6660   -2.4450 O.2   434  GLU434     -0.2864
     77  CB        32.2310   41.5460   -1.9150 C.3   434  GLU434      0.0415
     78  CG        30.7760   41.4810   -2.3100 C.3   434  GLU434      0.1163
     79  CD        30.2110   42.8420   -2.7860 C.2   434  GLU434      0.3649
     80  OE1       30.9080   43.8880   -2.7170 O.co2 434  GLU434     -0.2457
     81  OE2       29.0630   42.8300   -3.2510 O.co2 434  GLU434     -0.2457
     82  N         38.3380   42.3250   -9.2210 N.3   442  TRP442     -0.1241
     83  CA        38.3460   43.7850   -9.2120 C.3   442  TRP442      0.1605
     84  C         39.6840   44.3580   -9.6670 C.2   442  TRP442      0.2264
     85  O         40.0030   45.5110   -9.3400 O.2   442  TRP442     -0.2867
     86  CB        37.8930   44.3840   -7.8620 C.3   442  TRP442      0.0550
     87  CG        36.4770   44.0450   -7.4490 C.ar  442  TRP442      0.0003
     88  CD1       35.5010   43.3480   -8.1870 C.ar  442  TRP442      0.0946
     89  CD2       35.8560   44.3900   -6.2010 C.ar  442  TRP442      0.0152
     90  NE1       34.3340   43.2380   -7.4300 N.ar  442  TRP442     -0.2442
     91  CE2       34.5280   43.8630   -6.2210 C.ar  442  TRP442      0.0810
     92  CE3       36.3020   45.0760   -5.0490 C.ar  442  TRP442      0.0012
     93  CZ2       33.6430   44.0140   -5.1330 C.ar  442  TRP442      0.0191
     94  CZ3       35.4230   45.2100   -3.9640 C.ar  442  TRP442      0.0001
     95  CH2       34.1110   44.6910   -4.0240 C.ar  442  TRP442      0.0015
     96  N         24.5590   42.8540   -9.1060 N.3   505  TRP505     -0.1241
     97  CA        24.6370   44.2810   -9.2760 C.3   505  TRP505      0.1605
     98  C         24.5700   44.6820  -10.7380 C.2   505  TRP505      0.2264
     99  O         24.9850   45.7670  -11.1310 O.2   505  TRP505     -0.2867
    100  CB        25.7890   44.8780   -8.4950 C.3   505  TRP505      0.0550
    101  CG        25.4610   44.8820   -7.0350 C.ar  505  TRP505      0.0003
    102  CD1       25.8530   43.9580   -6.0980 C.ar  505  TRP505      0.0946
    103  CD2       24.6240   45.8140   -6.3610 C.ar  505  TRP505      0.0152
    104  NE1       25.3190   44.2670   -4.8600 N.ar  505  TRP505     -0.2442
    105  CE2       24.5610   45.4080   -4.9940 C.ar  505  TRP505      0.0810
    106  CE3       23.8940   46.9450   -6.7780 C.ar  505  TRP505      0.0012
    107  CZ2       23.8480   46.1380   -4.0220 C.ar  505  TRP505      0.0191
    108  CZ3       23.1530   47.6610   -5.8210 C.ar  505  TRP505      0.0001
    109  CH2       23.1340   47.2560   -4.4540 C.ar  505  TRP505      0.0015
    110  N         24.7470   48.9930  -10.9910 N.3   509  TYR509     -0.1241
    111  CA        26.1030   49.1170  -11.5980 C.3   509  TYR509      0.1605
    112  C         26.1690   48.6710  -13.0290 C.2   509  TYR509      0.2264
    113  O         26.8030   49.3350  -13.8250 O.2   509  TYR509     -0.2867
    114  CB        27.2430   48.4250  -10.8210 C.3   509  TYR509      0.0534
    115  CG        27.4500   49.0250   -9.4620 C.ar  509  TYR509     -0.0201
    116  CD1       28.2000   50.1880   -9.3070 C.ar  509  TYR509     -0.0009
    117  CD2       26.8660   48.4420   -8.3150 C.ar  509  TYR509     -0.0009
    118  CE1       28.3600   50.7790   -8.0230 C.ar  509  TYR509      0.0417
    119  CE2       27.0440   49.0090   -7.0380 C.ar  509  TYR509      0.0417
    120  CZ        27.7770   50.1810   -6.9100 C.ar  509  TYR509      0.1957
    121  OH        27.9190   50.7700   -5.6620 O.3   509  TYR509     -0.2866
    122  N         22.1070   39.9520   -2.3210 N.3   527  GLU527     -0.1245
    123  CA        22.0690   41.4260   -2.4850 C.3   527  GLU527      0.1567
    124  C         21.5550   41.7450   -3.8650 C.2   527  GLU527      0.2260
    125  O         21.9480   41.0940   -4.7770 O.2   527  GLU527     -0.2867
    126  CB        23.4620   42.0990   -2.4190 C.3   527  GLU527      0.0388
    127  CG        24.1990   41.9850   -1.1040 C.3   527  GLU527      0.1160
    128  CD        25.4390   42.8900   -1.0560 C.2   527  GLU527      0.3649
    129  OE1       25.7200   43.5550   -2.0710 O.co2 527  GLU527     -0.2457
    130  OE2       26.1220   42.9390   -0.0160 O.co2 527  GLU527     -0.2457
    131  N         19.3910   44.9730   -1.0720 N.3   617  TRP617     -0.1241
    132  CA        20.2910   45.9990   -0.6170 C.3   617  TRP617      0.1605
    133  C         19.5820   47.3850   -0.8090 C.2   617  TRP617      0.2264
    134  O         19.4060   47.7640   -1.9360 O.2   617  TRP617     -0.2867
    135  CB        21.6570   45.8940   -1.3690 C.3   617  TRP617      0.0550
    136  CG        22.5820   46.8470   -0.7030 C.ar  617  TRP617      0.0003
    137  CD1       22.6470   48.2060   -0.8920 C.ar  617  TRP617      0.0946
    138  CD2       23.4310   46.5520    0.4360 C.ar  617  TRP617      0.0152
    139  NE1       23.5300   48.7720    0.0430 N.ar  617  TRP617     -0.2442
    140  CE2       24.0090   47.7680    0.8650 C.ar  617  TRP617      0.0810
    141  CE3       23.7630   45.3760    1.1060 C.ar  617  TRP617      0.0012
    142  CZ2       24.9050   47.8310    1.9580 C.ar  617  TRP617      0.0191
    143  CZ3       24.6530   45.4230    2.1790 C.ar  617  TRP617      0.0001
    144  CH2       25.2090   46.6500    2.6020 C.ar  617  TRP617      0.0015
    145  N         20.3600   53.2430   -1.2640 N.3   628  TRP628     -0.1241
    146  CA        19.5820   52.1160   -1.7050 C.3   628  TRP628      0.1605
    147  C         18.5450   51.7060   -0.6420 C.2   628  TRP628      0.2264
    148  O         17.8520   50.7180   -0.7990 O.2   628  TRP628     -0.2867
    149  CB        20.5570   50.9640   -1.9140 C.3   628  TRP628      0.0550
    150  CG        21.6610   51.2350   -2.9790 C.ar  628  TRP628      0.0003
    151  CD1       21.6430   50.8570   -4.2500 C.ar  628  TRP628      0.0946
    152  CD2       22.9020   51.9410   -2.7690 C.ar  628  TRP628      0.0152
    153  NE1       22.8090   51.2700   -4.8770 N.ar  628  TRP628     -0.2442
    154  CE2       23.5950   51.9290   -3.9640 C.ar  628  TRP628      0.0810
    155  CE3       23.5180   52.5420   -1.6220 C.ar  628  TRP628      0.0012
    156  CZ2       24.8880   52.5470   -4.1120 C.ar  628  TRP628      0.0191
    157  CZ3       24.7880   53.1560   -1.7680 C.ar  628  TRP628      0.0001
    158  CH2       25.4340   53.1580   -3.0080 C.ar  628  TRP628      0.0015
@<TRIPOS>BOND
     1   113   112    2
     2   112   111    1
     3   111   110    1
     4   111   114    1
     5    99    98    2
     6   114   115    1
     7    98    97    1
     8    84    85    2
     9    84    83    1
    10   115   116   ar
    11   115   117   ar
    12   116   118   ar
    13    97    96    1
    14    97   100    1
    15    82    83    1
    16    83    86    1
    17   100   101    1
    18   117   119   ar
    19    88    87   ar
    20    88    90   ar
    21   118   120   ar
    22    86    87    1
    23    87    89   ar
    24    90    91   ar
    25   119   120   ar
    26   101   103   ar
    27   101   102   ar
    28   120   121    1
    29   106   103   ar
    30   106   108   ar
    31   103   105   ar
    32    91    89   ar
    33    91    93   ar
    34    89    92   ar
    35   102   104   ar
    36   108   109   ar
    37    93    95   ar
    38    92    94   ar
    39   105   104   ar
    40   105   107   ar
    41   153   151   ar
    42   153   154   ar
    43   125   124    2
    44   109   107   ar
    45   151   150   ar
    46   156   154   ar
    47   156   158   ar
    48    95    94   ar
    49   154   152   ar
    50   124   123    1
    51    81    79   ar
    52   158   157   ar
    53   150   152   ar
    54   150   149    1
    55    79    80   ar
    56    79    78    1
    57   152   155   ar
    58   123   126    1
    59   123   122    1
    60    76    75    2
    61    30    28   ar
    62   126   127    1
    63    78    77    1
    64   129   128   ar
    65   134   133    2
    66    77    74    1
    67   149   146    1
    68   157   155   ar
    69    27    28    1
    70    27    24    1
    71   146   145    1
    72   146   147    1
    73    28    29   ar
    74    75    74    1
    75   135   136    1
    76   135   132    1
    77    74    73    1
    78    62    61    2
    79   127   128    1
    80   131   132    1
    81   128   130   ar
    82    26    25    2
    83   137   136   ar
    84   137   139   ar
    85   133   132    1
    86   148   147    2
    87   136   138   ar
    88    24    25    1
    89    24    23    1
    90     8     6   am
    91    64    63    1
    92     7     6    2
    93    25    31   am
    94    61    60    1
    95    63    60    1
    96     1     2    1
    97    73    67   am
    98   139   140   ar
    99    60    59    1
   100     6     5    1
   101   138   140   ar
   102   138   141   ar
   103    23    11   am
   104    72    70   am
   105     2     5    1
   106     2     3    1
   107    71    70    2
   108   140   142   ar
   109    67    68    2
   110    67    66    1
   111    31    32    1
   112   141   143   ar
   113    70    69    1
   114    17    15   ar
   115    17    18   ar
   116    32    35    1
   117    32    33    1
   118    11    12    2
   119    11    10    1
   120    37    36   ar
   121    37    39   ar
   122    35    36    1
   123    15    14   ar
   124   142   144   ar
   125     3     4    2
   126   143   144   ar
   127    66    69    1
   128    66    65    1
   129    20    18   ar
   130    20    22   ar
   131    18    16   ar
   132    36    38   ar
   133    39    40   ar
   134    10    13    1
   135    10     9    1
   136    53    51   ar
   137    53    54   ar
   138    14    16   ar
   139    14    13    1
   140    33    34    2
   141    22    21   ar
   142    16    19   ar
   143    51    50   ar
   144    38    40   ar
   145    38    41   ar
   146    40    42   ar
   147    56    54   ar
   148    56    58   ar
   149    54    52   ar
   150    21    19   ar
   151    50    52   ar
   152    50    49    1
   153    58    57   ar
   154    42    44   ar
   155    52    55   ar
   156    41    43   ar
   157    49    46    1
   158    57    55   ar
   159    44    43   ar
   160    46    47    1
   161    46    45    1
   162    47    48    2
