@<TRIPOS>MOLECULE
tmp/2vqvA00.pdb
 110 108 0 0 0
SMALL
GASTEIGER

@<TRIPOS>ATOM
      1  N         11.5700   -3.9410   33.6350 N.3   106  PRO106     -0.2116
      2  CA        10.2480   -4.0200   33.0170 C.3   106  PRO106      0.1372
      3  C         10.2890   -4.5570   31.5820 C.2   106  PRO106      0.2244
      4  O         11.3560   -4.6630   30.9790 O.2   106  PRO106     -0.2868
      5  CB         9.7600   -2.5650   33.0290 C.3   106  PRO106      0.0268
      6  CG        10.9550   -1.7360   33.2860 C.3   106  PRO106      0.0207
      7  CD        11.8800   -2.5750   34.0860 C.3   106  PRO106      0.0892
      8  N          6.8760   -4.4700   29.2680 N.3   108  HIS108     -0.1226
      9  CA         5.7030   -4.1640   28.4160 C.3   108  HIS108      0.1752
     10  C          5.9230   -3.0790   27.3420 C.2   108  HIS108      0.2596
     11  O          5.0450   -2.8590   26.4960 O.2   108  HIS108     -0.2718
     12  CB         4.4590   -3.8500   29.2790 C.3   108  HIS108      0.0759
     13  CG         4.4700   -2.4890   29.9020 C.ar  108  HIS108      0.0818
     14  ND1        3.3240   -1.8710   30.3510 N.ar  108  HIS108     -0.2268
     15  CD2        5.4810   -1.6220   30.1400 C.ar  108  HIS108      0.1154
     16  CE1        3.6310   -0.6860   30.8500 C.ar  108  HIS108      0.1986
     17  NE2        4.9330   -0.5080   30.7290 N.ar  108  HIS108     -0.2212
     18  N          7.0870   -2.4190   27.3730 N.am  109  HIS109     -0.1975
     19  CA         7.4620   -1.4510   26.3370 C.3   109  HIS109      0.1656
     20  C          8.1780   -2.0690   25.1360 C.2   109  HIS109      0.2291
     21  O          7.9740   -1.6260   24.0120 O.2   109  HIS109     -0.2864
     22  CB         8.3270   -0.3220   26.9030 C.3   109  HIS109      0.0771
     23  CG         7.5890    0.6050   27.8110 C.ar  109  HIS109      0.0820
     24  ND1        6.3860    1.1810   27.4680 N.ar  109  HIS109     -0.2267
     25  CD2        7.8920    1.0700   29.0450 C.ar  109  HIS109      0.1154
     26  CE1        5.9720    1.9520   28.4580 C.ar  109  HIS109      0.1986
     27  NE2        6.8680    1.9020   29.4270 N.ar  109  HIS109     -0.2212
     28  N         12.1240    2.1070   26.5160 N.3   117  GLY117     -0.1210
     29  CA        11.5970    2.3200   27.8670 C.3   117  GLY117      0.1956
     30  C         12.1990    1.4220   28.9300 C.2   117  GLY117      0.2611
     31  O         11.4910    0.9450   29.8120 O.2   117  GLY117     -0.2717
     32  N         13.5070    1.1970   28.8420 N.am  118  PHE118     -0.1976
     33  CA        14.2330    0.2870   29.7430 C.3   118  PHE118      0.1639
     34  C         13.8900   -1.1850   29.5240 C.2   118  PHE118      0.2290
     35  O         14.3440   -2.0390   30.2950 O.2   118  PHE118     -0.2864
     36  CB        13.9950    0.6340   31.2220 C.3   118  PHE118      0.0560
     37  CG        14.0770    2.0970   31.5230 C.ar  118  PHE118     -0.0200
     38  CD1       12.9530    2.7970   31.9370 C.ar  118  PHE118     -0.0042
     39  CD2       15.2790    2.7780   31.3860 C.ar  118  PHE118     -0.0042
     40  CE1       13.0240    4.1540   32.2150 C.ar  118  PHE118     -0.0003
     41  CE2       15.3590    4.1370   31.6560 C.ar  118  PHE118     -0.0003
     42  CZ        14.2260    4.8260   32.0730 C.ar  118  PHE118     -0.0000
     43  N          0.4620   -0.6380   35.1670 N.3   146  ASP146     -0.1239
     44  CA         1.5860    0.3090   35.1820 C.3   146  ASP146      0.1674
     45  C          1.0220    1.6670   34.7710 C.2   146  ASP146      0.2266
     46  O          0.0160    1.7240   34.0630 O.2   146  ASP146     -0.2867
     47  CB         2.6710   -0.1300   34.1930 C.3   146  ASP146      0.1410
     48  CG         3.9260    0.7290   34.2650 C.2   146  ASP146      0.3668
     49  OD1        4.6280    0.6560   35.2840 O.co2 146  ASP146     -0.2456
     50  OD2        4.2360    1.4530   33.2930 O.co2 146  ASP146     -0.2456
     51  N          2.1930    3.7610   32.7000 N.3   148  HIS148     -0.1241
     52  CA         2.4360    4.0000   31.2730 C.3   148  HIS148      0.1621
     53  C          1.6630    3.0280   30.3860 C.2   148  HIS148      0.2264
     54  O          1.1530    2.0210   30.8700 O.2   148  HIS148     -0.2867
     55  CB         3.9340    3.9150   30.9960 C.3   148  HIS148      0.0745
     56  CG         4.7320    4.8750   31.8150 C.ar  148  HIS148      0.0817
     57  ND1        5.2460    4.5470   33.0510 N.ar  148  HIS148     -0.2268
     58  CD2        5.0660    6.1680   31.5970 C.ar  148  HIS148      0.1154
     59  CE1        5.8830    5.5930   33.5480 C.ar  148  HIS148      0.1986
     60  NE2        5.7850    6.5900   32.6870 N.ar  148  HIS148     -0.2212
     61  N          4.6170    9.6340   28.1370 N.3   177  PHE177     -0.1241
     62  CA         5.3210    8.4490   27.6840 C.3   177  PHE177      0.1605
     63  C          4.4100    7.2230   27.7240 C.2   177  PHE177      0.2264
     64  O          3.6850    7.0260   28.6970 O.2   177  PHE177     -0.2867
     65  CB         6.5690    8.1810   28.5120 C.3   177  PHE177      0.0534
     66  CG         7.4360    7.1110   27.9300 C.ar  177  PHE177     -0.0203
     67  CD1        8.2530    7.3900   26.8490 C.ar  177  PHE177     -0.0042
     68  CD2        7.4040    5.8230   28.4290 C.ar  177  PHE177     -0.0042
     69  CE1        9.0400    6.4110   26.2880 C.ar  177  PHE177     -0.0003
     70  CE2        8.1910    4.8380   27.8750 C.ar  177  PHE177     -0.0003
     71  CZ         9.0150    5.1330   26.8030 C.ar  177  PHE177     -0.0000
     72  N          4.0280    2.5270   39.2800 N.3   240  ASP240     -0.1239
     73  CA         4.3720    3.9450   39.1010 C.3   240  ASP240      0.1674
     74  C          3.1540    4.8680   39.1740 C.2   240  ASP240      0.2266
     75  O          3.3000    6.0870   39.0920 O.2   240  ASP240     -0.2867
     76  CB         5.2120    4.2050   37.8300 C.3   240  ASP240      0.1410
     77  CG         4.8320    3.3220   36.6560 C.2   240  ASP240      0.3668
     78  OD1        3.6380    2.9900   36.5120 O.co2 240  ASP240     -0.2456
     79  OD2        5.7410    2.9780   35.8650 O.co2 240  ASP240     -0.2456
     80  N          6.8290   13.8970   36.0440 N.3   248  PRO248     -0.2102
     81  CA         7.1610   13.3460   34.7280 C.3   248  PRO248      0.1504
     82  C          7.3790   11.8300   34.6840 C.2   248  PRO248      0.2575
     83  O          6.8530   11.1720   33.7890 O.2   248  PRO248     -0.2718
     84  CB         8.4470   14.0810   34.3410 C.3   248  PRO248      0.0282
     85  CG         8.9190   14.7900   35.5670 C.3   248  PRO248      0.0208
     86  CD         8.0040   14.4890   36.7000 C.3   248  PRO248      0.0893
     87  N          8.1380   11.2730   35.6250 N.am  249  LEU249     -0.1980
     88  CA         8.3770    9.8240   35.6390 C.3   249  LEU249      0.1596
     89  C          7.3700    9.1500   36.5660 C.2   249  LEU249      0.2287
     90  O          7.7270    8.2490   37.3250 O.2   249  LEU249     -0.2864
     91  CB         9.8360    9.5080   36.0340 C.3   249  LEU249      0.0297
     92  CG        10.9180    9.9230   34.9970 C.3   249  LEU249      0.0022
     93  CD1       12.2060   10.4880   35.6260 C.3   249  LEU249      0.0001
     94  CD2       11.2850    8.7620   34.0780 C.3   249  LEU249      0.0001
     95  N          6.8740   -1.2580   36.1790 N.3   280  GLY280     -0.1225
     96  CA         7.4300    0.0210   36.6470 C.3   280  GLY280      0.1811
     97  C          7.2810    0.2810   38.1440 C.2   280  GLY280      0.2280
     98  O          7.0460   -0.6370   38.9290 O.2   280  GLY280     -0.2866
     99  N          9.2330    3.1510   40.9080 N.3   282  TYR282     -0.1241
    100  CA        10.6400    3.3820   41.2510 C.3   282  TYR282      0.1605
    101  C         10.9110    3.9170   42.6530 C.2   282  TYR282      0.2264
    102  O         12.0440    3.8200   43.1350 O.2   282  TYR282     -0.2867
    103  CB        11.2460    4.3120   40.2070 C.3   282  TYR282      0.0534
    104  CG        11.1040    3.7180   38.8350 C.ar  282  TYR282     -0.0201
    105  CD1       12.0340    2.8090   38.3550 C.ar  282  TYR282     -0.0009
    106  CD2       10.0050    4.0090   38.0440 C.ar  282  TYR282     -0.0009
    107  CE1       11.8940    2.2350   37.1020 C.ar  282  TYR282      0.0417
    108  CE2        9.8530    3.4390   36.7910 C.ar  282  TYR282      0.0417
    109  CZ        10.8010    2.5530   36.3210 C.ar  282  TYR282      0.1957
    110  OH        10.6660    1.9840   35.0760 O.3   282  TYR282     -0.2866
@<TRIPOS>BOND
     1    21    20    2
     2    20    19    1
     3    69    71   ar
     4    69    67   ar
     5    19    22    1
     6    19    18    1
     7    11    10    2
     8    28    29    1
     9    71    70   ar
    10    67    66   ar
    11    22    23    1
    12    10    18   am
    13    10     9    1
    14    24    23   ar
    15    24    26   ar
    16    62    63    1
    17    62    61    1
    18    62    65    1
    19    63    64    2
    20    23    25   ar
    21    29    30    1
    22    70    68   ar
    23    66    68   ar
    24    66    65    1
    25     9     8    1
    26     9    12    1
    27    26    27   ar
    28    32    30   am
    29    32    33    1
    30    30    31    2
    31    25    27   ar
    32    12    13    1
    33    34    33    1
    34    34    35    2
    35    33    36    1
    36    13    15   ar
    37    13    14   ar
    38    15    17   ar
    39    14    16   ar
    40    53    54    2
    41    53    52    1
    42    17    16   ar
    43     4     3    2
    44    55    52    1
    45    55    56    1
    46    36    37    1
    47    52    51    1
    48    39    37   ar
    49    39    41   ar
    50    37    38   ar
    51     3     2    1
    52    58    56   ar
    53    58    60   ar
    54    41    42   ar
    55    56    57   ar
    56    38    40   ar
    57    42    40   ar
    58    60    59   ar
    59     2     5    1
    60     2     1    1
    61     5     6    1
    62    57    59   ar
    63     6     7    1
    64    50    48   ar
    65     1     7    1
    66    83    82    2
    67    46    45    2
    68    94    92    1
    69    47    48    1
    70    47    44    1
    71    48    49   ar
    72    84    81    1
    73    84    85    1
    74    82    81    1
    75    82    87   am
    76    81    80    1
    77    45    44    1
    78    92    93    1
    79    92    91    1
    80   110   109    1
    81    43    44    1
    82    85    86    1
    83    87    88    1
    84    88    91    1
    85    88    89    1
    86    79    77   ar
    87    80    86    1
    88    95    96    1
    89   109   108   ar
    90   109   107   ar
    91    78    77   ar
    92    89    90    2
    93    96    97    1
    94    77    76    1
    95   108   106   ar
    96   107   105   ar
    97    76    73    1
    98   106   104   ar
    99    97    98    2
   100   105   104   ar
   101   104   103    1
   102    75    74    2
   103    73    74    1
   104    73    72    1
   105   103   100    1
   106    99   100    1
   107   100   101    1
   108   101   102    2
