@<TRIPOS>MOLECULE
tmp/2vqvA01.pdb
 79 75 0 0 0
SMALL
GASTEIGER

@<TRIPOS>ATOM
      1  N         20.5220  -10.3130   18.6420 N.3    59  LEU59      -0.1231
      2  CA        21.3050   -9.1530   19.0410 C.3    59  LEU59       0.1693
      3  C         21.4140   -9.0510   20.5590 C.2    59  LEU59       0.2592
      4  O         22.5120   -8.9240   21.0900 O.2    59  LEU59      -0.2718
      5  CB        20.7120   -7.8570   18.4830 C.3    59  LEU59       0.0284
      6  CG        21.7360   -6.9230   17.8430 C.3    59  LEU59       0.0019
      7  CD1       21.2500   -5.4850   17.8430 C.3    59  LEU59       0.0001
      8  CD2       23.0760   -7.0360   18.5480 C.3    59  LEU59       0.0001
      9  N         20.2740   -9.1330   21.2490 N.am   60  TYR60      -0.1976
     10  CA        20.1930   -8.8310   22.6900 C.3    60  TYR60       0.1639
     11  C         20.0980  -10.0490   23.6210 C.2    60  TYR60       0.2290
     12  O         20.3840   -9.9370   24.8150 O.2    60  TYR60      -0.2864
     13  CB        19.0120   -7.8940   22.9540 C.3    60  TYR60       0.0560
     14  CG        19.0860   -6.5940   22.1740 C.ar   60  TYR60      -0.0198
     15  CD1       18.3410   -6.4170   21.0090 C.ar   60  TYR60      -0.0009
     16  CD2       19.9120   -5.5440   22.5930 C.ar   60  TYR60      -0.0009
     17  CE1       18.4050   -5.2370   20.2890 C.ar   60  TYR60       0.0417
     18  CE2       19.9850   -4.3560   21.8740 C.ar   60  TYR60       0.0417
     19  CZ        19.2270   -4.2110   20.7230 C.ar   60  TYR60       0.1957
     20  OH        19.2790   -3.0380   19.9980 O.3    60  TYR60      -0.2866
     21  N         21.8620  -13.0500   23.3220 N.3    62  THR62      -0.1218
     22  CA        23.0810  -13.8670   23.3690 C.3    62  THR62       0.1862
     23  C         24.0390  -13.4840   24.5030 C.2    62  THR62       0.2287
     24  O         24.1960  -12.3030   24.8060 O.2    62  THR62      -0.2866
     25  CB        23.8590  -13.7330   22.0370 C.3    62  THR62       0.1770
     26  OG1       22.9560  -13.8720   20.9340 O.3    62  THR62      -0.2211
     27  CG2       24.9550  -14.7860   21.9330 C.3    62  THR62       0.0375
     28  N         27.7180  -12.9120   25.1620 N.3    64  PRO64      -0.2116
     29  CA        28.8920  -12.7720   24.2990 C.3    64  PRO64       0.1372
     30  C         30.0710  -13.5970   24.8190 C.2    64  PRO64       0.2244
     31  O         30.6190  -14.4200   24.0870 O.2    64  PRO64      -0.2868
     32  CB        29.2140  -11.2700   24.3530 C.3    64  PRO64       0.0268
     33  CG        28.1600  -10.6310   25.2120 C.3    64  PRO64       0.0207
     34  CD        27.4560  -11.7000   25.9600 C.3    64  PRO64       0.0892
     35  N         29.2400    0.9530   28.8680 N.3    67  ILE67      -0.1245
     36  CA        28.4300    0.1780   27.9020 C.3    67  ILE67       0.1561
     37  C         27.9880   -1.2150   28.4080 C.2    67  ILE67       0.2260
     38  O         26.9280   -1.7210   28.0140 O.2    67  ILE67      -0.2867
     39  CB        29.2030   -0.0170   26.5550 C.3    67  ILE67       0.0252
     40  CG1       28.3910   -0.8070   25.5220 C.3    67  ILE67       0.0019
     41  CG2       30.5360   -0.7080   26.8230 C.3    67  ILE67       0.0019
     42  CD1       27.4040    0.0750   24.8140 C.3    67  ILE67       0.0001
     43  N         24.3350   -1.9640   30.1940 N.3    70  GLU70      -0.1231
     44  CA        23.2030   -2.4140   29.3620 C.3    70  GLU70       0.1699
     45  C         23.2710   -3.8970   28.9830 C.2    70  GLU70       0.2592
     46  O         22.2510   -4.5790   28.9710 O.2    70  GLU70      -0.2718
     47  CB        23.0810   -1.5610   28.0830 C.3    70  GLU70       0.0402
     48  CG        21.9250   -0.5430   28.0760 C.3    70  GLU70       0.1161
     49  CD        21.9540    0.4260   29.2400 C.2    70  GLU70       0.3649
     50  OE1       23.0590    0.7930   29.6920 O.co2  70  GLU70      -0.2457
     51  OE2       20.8660    0.8280   29.7010 O.co2  70  GLU70      -0.2457
     52  N         24.4650   -4.3900   28.6760 N.am   71  VAL71      -0.1980
     53  CA        24.6400   -5.8010   28.3170 C.3    71  VAL71       0.1595
     54  C         24.1530   -6.7580   29.4200 C.2    71  VAL71       0.2287
     55  O         23.5130   -7.7730   29.1300 O.2    71  VAL71      -0.2864
     56  CB        26.1130   -6.1080   27.9520 C.3    71  VAL71       0.0276
     57  CG1       26.3620   -7.6090   27.8860 C.3    71  VAL71       0.0022
     58  CG2       26.4700   -5.4410   26.6280 C.3    71  VAL71       0.0022
     59  N         20.3910   -6.5480   29.6070 N.3    74  ALA74      -0.1231
     60  CA        19.8390   -7.4060   28.5640 C.3    74  ALA74       0.1694
     61  C         19.8750   -8.8670   29.0200 C.2    74  ALA74       0.2592
     62  O         18.9090   -9.6140   28.8150 O.2    74  ALA74      -0.2718
     63  CB        20.6160   -7.2330   27.2680 C.3    74  ALA74       0.0304
     64  N         20.9880   -9.2630   29.6390 N.am   75  GLY75      -0.1957
     65  CA        21.1330  -10.6070   30.1990 C.3    75  GLY75       0.1869
     66  C         20.1660  -10.8770   31.3410 C.2    75  GLY75       0.2309
     67  O         19.7100  -12.0130   31.5200 O.2    75  GLY75      -0.2863
     68  N         13.7130   -4.7250   27.2780 N.3   120  TYR120     -0.1241
     69  CA        14.3310   -5.5150   26.2160 C.3   120  TYR120      0.1605
     70  C         13.4330   -6.6380   25.7000 C.2   120  TYR120      0.2264
     71  O         13.4340   -6.9240   24.5040 O.2   120  TYR120     -0.2867
     72  CB        15.6620   -6.0890   26.6900 C.3   120  TYR120      0.0534
     73  CG        16.7870   -5.0970   26.6160 C.ar  120  TYR120     -0.0201
     74  CD1       17.2180   -4.4110   27.7480 C.ar  120  TYR120     -0.0009
     75  CD2       17.4150   -4.8340   25.4090 C.ar  120  TYR120     -0.0009
     76  CE1       18.2560   -3.4970   27.6790 C.ar  120  TYR120      0.0417
     77  CE2       18.4540   -3.9240   25.3280 C.ar  120  TYR120      0.0417
     78  CZ        18.8690   -3.2590   26.4670 C.ar  120  TYR120      0.1957
     79  OH        19.9010   -2.3570   26.3870 O.3   120  TYR120     -0.2866
@<TRIPOS>BOND
     1     6     7    1
     2     6     5    1
     3     6     8    1
     4     5     2    1
     5     1     2    1
     6     2     3    1
     7    20    19    1
     8    17    19   ar
     9    17    15   ar
    10     3     4    2
    11     3     9   am
    12    19    18   ar
    13    26    25    1
    14    15    14   ar
    15     9    10    1
    16    18    16   ar
    17    27    25    1
    18    25    22    1
    19    14    16   ar
    20    14    13    1
    21    10    13    1
    22    10    11    1
    23    21    22    1
    24    22    23    1
    25    11    12    2
    26    31    30    2
    27    29    32    1
    28    29    30    1
    29    29    28    1
    30    32    33    1
    31    23    24    2
    32    71    70    2
    33    42    40    1
    34    28    34    1
    35    33    34    1
    36    77    75   ar
    37    77    78   ar
    38    75    73   ar
    39    40    39    1
    40    70    69    1
    41    69    72    1
    42    69    68    1
    43    79    78    1
    44    78    76   ar
    45    39    41    1
    46    39    36    1
    47    73    72    1
    48    73    74   ar
    49    58    56    1
    50    63    60    1
    51    76    74   ar
    52    57    56    1
    53    36    37    1
    54    36    35    1
    55    56    53    1
    56    38    37    2
    57    48    47    1
    58    48    49    1
    59    47    44    1
    60    53    52    1
    61    53    54    1
    62    60    61    1
    63    60    59    1
    64    52    45   am
    65    62    61    2
    66    46    45    2
    67    45    44    1
    68    61    64   am
    69    55    54    2
    70    49    50   ar
    71    49    51   ar
    72    44    43    1
    73    64    65    1
    74    65    66    1
    75    66    67    2
