@<TRIPOS>MOLECULE
tmp/2vqyA01.pdb
 202 201 0 0 0
SMALL
GASTEIGER

@<TRIPOS>ATOM
      1  N          6.7360    2.9150   10.9250 N.3    28  TRP28      -0.1227
      2  CA         7.1120    4.0690   11.7560 C.3    28  TRP28       0.1737
      3  C          8.3900    4.8100   11.3450 C.2    28  TRP28       0.2595
      4  O          8.6720    5.9100   11.8340 O.2    28  TRP28      -0.2718
      5  CB         7.2140    3.6180   13.2200 C.3    28  TRP28       0.0564
      6  CG         5.9080    3.0670   13.7410 C.ar   28  TRP28       0.0003
      7  CD1        5.6240    1.7670   14.0340 C.ar   28  TRP28       0.0946
      8  CD2        4.7050    3.8140   14.0040 C.ar   28  TRP28       0.0152
      9  NE1        4.3220    1.6530   14.4740 N.ar   28  TRP28      -0.2442
     10  CE2        3.7340    2.8910   14.4560 C.ar   28  TRP28       0.0810
     11  CE3        4.3520    5.1720   13.8760 C.ar   28  TRP28       0.0012
     12  CZ2        2.4230    3.2820   14.8110 C.ar   28  TRP28       0.0191
     13  CZ3        3.0410    5.5610   14.2160 C.ar   28  TRP28       0.0001
     14  CH2        2.1050    4.6080   14.6870 C.ar   28  TRP28       0.0015
     15  N          9.1530    4.2220   10.4340 N.am   29  TRP29      -0.1962
     16  CA        10.4810    4.7080   10.1360 C.3    29  TRP29       0.1771
     17  C         10.6160    4.8600    8.6580 C.2    29  TRP29       0.2620
     18  O         10.4250    3.8990    7.9160 O.2    29  TRP29      -0.2715
     19  CB        11.5230    3.6850   10.6140 C.3    29  TRP29       0.0590
     20  CG        12.9280    4.2290   10.6690 C.ar   29  TRP29       0.0006
     21  CD1       13.7390    4.5600    9.6080 C.ar   29  TRP29       0.0946
     22  CD2       13.6850    4.4950   11.8510 C.ar   29  TRP29       0.0152
     23  NE1       14.9510    5.0180   10.0690 N.ar   29  TRP29      -0.2442
     24  CE2       14.9430    4.9920   11.4400 C.ar   29  TRP29       0.0810
     25  CE3       13.4170    4.3750   13.2240 C.ar   29  TRP29       0.0012
     26  CZ2       15.9430    5.3670   12.3520 C.ar   29  TRP29       0.0191
     27  CZ3       14.4270    4.7530   14.1460 C.ar   29  TRP29       0.0001
     28  CH2       15.6700    5.2330   13.6960 C.ar   29  TRP29       0.0015
     29  N         10.9830    6.0510    8.2280 N.am   30  GLY30      -0.1940
     30  CA        11.3130    6.2630    6.8480 C.3    30  GLY30       0.2014
     31  C         10.3360    7.2300    6.2410 C.2    30  GLY30       0.2639
     32  O         10.7410    8.1580    5.5090 O.2    30  GLY30      -0.2714
     33  N          9.0670    7.0410    6.6070 N.am   31  GLY31      -0.1954
     34  CA         7.9270    7.6190    5.8940 C.3    31  GLY31       0.1869
     35  C          7.0970    6.4660    5.3670 C.2    31  GLY31       0.2309
     36  O          7.1500    5.3490    5.9270 O.2    31  GLY31      -0.2863
     37  N         23.4260    6.5490    3.1760 N.3    42  GLN42      -0.1231
     38  CA        22.8450    7.4310    4.1960 C.3    42  GLN42       0.1698
     39  C         23.2440    7.0830    5.6290 C.2    42  GLN42       0.2592
     40  O         23.3030    7.9830    6.4710 O.2    42  GLN42      -0.2718
     41  CB        21.3250    7.4740    4.0620 C.3    42  GLN42       0.0381
     42  CG        20.8860    8.0350    2.7250 C.3    42  GLN42       0.0905
     43  CD        19.4120    7.8420    2.4100 C.2    42  GLN42       0.2608
     44  OE1       18.5820    7.6400    3.2990 O.2    42  GLN42      -0.2717
     45  NE2       19.0810    7.9050    1.1220 N.am   42  GLN42      -0.0878
     46  N         23.4980    5.8040    5.9120 N.am   43  TYR43      -0.1976
     47  CA        23.7560    5.3670    7.2990 C.3    43  TYR43       0.1639
     48  C         25.2190    5.0260    7.5520 C.2    43  TYR43       0.2290
     49  O         25.6070    4.6470    8.6580 O.2    43  TYR43      -0.2864
     50  CB        22.8540    4.1960    7.6960 C.3    43  TYR43       0.0560
     51  CG        21.3860    4.5590    7.8410 C.ar   43  TYR43      -0.0198
     52  CD1       20.8410    4.8500    9.1150 C.ar   43  TYR43      -0.0009
     53  CD2       20.5420    4.5870    6.7360 C.ar   43  TYR43      -0.0009
     54  CE1       19.5050    5.1550    9.2670 C.ar   43  TYR43       0.0417
     55  CE2       19.1730    4.9110    6.8670 C.ar   43  TYR43       0.0417
     56  CZ        18.6700    5.2070    8.1490 C.ar   43  TYR43       0.1957
     57  OH        17.3370    5.5250    8.3240 O.3    43  TYR43      -0.2866
     58  N         29.0650    9.4040    7.0040 N.3    47  VAL47      -0.1231
     59  CA        28.0570   10.2780    6.3830 C.3    47  VAL47       0.1692
     60  C         27.1120   10.8250    7.4670 C.2    47  VAL47       0.2591
     61  O         26.7570   12.0210    7.4580 O.2    47  VAL47      -0.2718
     62  CB        27.2630    9.5040    5.2780 C.3    47  VAL47       0.0266
     63  CG1       26.0120   10.2880    4.8210 C.3    47  VAL47       0.0020
     64  CG2       28.1820    9.2000    4.0650 C.3    47  VAL47       0.0020
     65  N         26.6850    9.9400    8.3620 N.am   48  LEU48      -0.1980
     66  CA        25.8020   10.3500    9.4600 C.3    48  LEU48       0.1596
     67  C         26.4850   11.4530   10.3040 C.2    48  LEU48       0.2287
     68  O         25.8310   12.3710   10.8130 O.2    48  LEU48      -0.2864
     69  CB        25.4190    9.1520   10.3250 C.3    48  LEU48       0.0297
     70  CG        24.3300    8.2140    9.7570 C.3    48  LEU48       0.0022
     71  CD1       24.2000    7.0160   10.6680 C.3    48  LEU48       0.0001
     72  CD2       22.9930    8.9780    9.5940 C.3    48  LEU48       0.0001
     73  N         25.7250   15.1410    9.7580 N.3    51  GLU51      -0.1245
     74  CA        24.5630   15.7630   10.3910 C.3    51  GLU51       0.1567
     75  C         24.5830   15.5900   11.9140 C.2    51  GLU51       0.2260
     76  O         23.5440   15.6390   12.5610 O.2    51  GLU51      -0.2867
     77  CB        23.2180   15.2890    9.7910 C.3    51  GLU51       0.0388
     78  CG        22.7970   16.0860    8.5220 C.3    51  GLU51       0.1160
     79  CD        21.4260   15.6980    7.9650 C.2    51  GLU51       0.3649
     80  OE1       20.7560   14.7470    8.4840 O.co2  51  GLU51      -0.2457
     81  OE2       21.0210   16.3570    6.9680 O.co2  51  GLU51      -0.2457
     82  N         25.0340   12.9370   13.6770 N.3    53  VAL53      -0.1245
     83  CA        24.3530   11.7280   14.1060 C.3    53  VAL53       0.1561
     84  C         25.3640   10.6020   14.3450 C.2    53  VAL53       0.2260
     85  O         26.2150   10.3250   13.4720 O.2    53  VAL53      -0.2867
     86  CB        23.3000   11.2520   13.0240 C.3    53  VAL53       0.0252
     87  CG1       22.6560    9.9230   13.4090 C.3    53  VAL53       0.0019
     88  CG2       22.2220   12.3160   12.7830 C.3    53  VAL53       0.0019
     89  N         20.1740    5.8010   17.3400 N.3    69  GLN69      -0.1245
     90  CA        21.0810    6.8760   16.9830 C.3    69  GLN69       0.1566
     91  C         20.8920    8.0290   17.9540 C.2    69  GLN69       0.2260
     92  O         19.7700    8.2440   18.5140 O.2    69  GLN69      -0.2867
     93  CB        20.8680    7.3440   15.5220 C.3    69  GLN69       0.0367
     94  CG        19.4200    7.8620   15.2160 C.3    69  GLN69       0.0905
     95  CD        19.2220    8.2570   13.7520 C.2    69  GLN69       0.2608
     96  OE1       19.7480    7.6030   12.8300 O.2    69  GLN69      -0.2717
     97  NE2       18.4280    9.2950   13.5280 N.am   69  GLN69      -0.0878
     98  N         21.9480   12.3120   18.3460 N.3    71  TYR71      -0.1241
     99  CA        22.3600   13.4530   17.5410 C.3    71  TYR71       0.1605
    100  C         22.4900   14.7180   18.3750 C.2    71  TYR71       0.2264
    101  O         21.8460   14.8620   19.4290 O.2    71  TYR71      -0.2867
    102  CB        21.4160   13.6730   16.3050 C.3    71  TYR71       0.0534
    103  CG        19.9840   13.9050   16.7000 C.ar   71  TYR71      -0.0201
    104  CD1       19.5610   15.1840   17.0550 C.ar   71  TYR71      -0.0009
    105  CD2       19.0460   12.8550   16.7140 C.ar   71  TYR71      -0.0009
    106  CE1       18.2390   15.4290   17.4540 C.ar   71  TYR71       0.0417
    107  CE2       17.6880   13.1020   17.1170 C.ar   71  TYR71       0.0417
    108  CZ        17.3240   14.3800   17.4710 C.ar   71  TYR71       0.1957
    109  OH        16.0510   14.6690   17.8810 O.3    71  TYR71      -0.2866
    110  N         21.8630   19.6270   13.6310 N.3    76  SER76      -0.1217
    111  CA        20.9690   18.8630   12.7570 C.3    76  SER76       0.1889
    112  C         20.7910   19.5570   11.4080 C.2    76  SER76       0.2288
    113  O         21.0810   20.7440   11.2710 O.2    76  SER76      -0.2866
    114  CB        19.6040   18.6490   13.4370 C.3    76  SER76       0.2089
    115  OG        19.7250   17.8690   14.6230 O.3    76  SER76      -0.2183
    116  N         15.6020   21.3680   11.0230 N.3    80  TRP80      -0.1227
    117  CA        15.5810   20.5940   12.2580 C.3    80  TRP80       0.1737
    118  C         16.0720   21.4040   13.4580 C.2    80  TRP80       0.2595
    119  O         17.1850   21.9470   13.4140 O.2    80  TRP80      -0.2718
    120  CB        16.4440   19.3290   12.0910 C.3    80  TRP80       0.0564
    121  CG        15.8290   18.3030   11.2100 C.ar   80  TRP80       0.0003
    122  CD1       16.0880   18.0730    9.8720 C.ar   80  TRP80       0.0946
    123  CD2       14.8080   17.3770   11.5880 C.ar   80  TRP80       0.0152
    124  NE1       15.2780   17.0470    9.4050 N.ar   80  TRP80      -0.2442
    125  CE2       14.4810   16.6080   10.4340 C.ar   80  TRP80       0.0810
    126  CE3       14.1190   17.1380   12.7860 C.ar   80  TRP80       0.0012
    127  CZ2       13.5040   15.5940   10.4570 C.ar   80  TRP80       0.0191
    128  CZ3       13.1600   16.1070   12.8180 C.ar   80  TRP80       0.0001
    129  CH2       12.8640   15.3520   11.6640 C.ar   80  TRP80       0.0015
    130  N         15.2600   21.4440   14.5260 N.am   81  TRP81      -0.1976
    131  CA        15.6260   22.0370   15.8270 C.3    81  TRP81       0.1640
    132  C         16.1540   23.4770   15.6940 C.2    81  TRP81       0.2290
    133  O         17.1220   23.8590   16.3570 O.2    81  TRP81      -0.2864
    134  CB        16.6170   21.1080   16.6170 C.3    81  TRP81       0.0576
    135  CG        16.1060   19.6970   16.4870 C.ar   81  TRP81       0.0006
    136  CD1       16.7350   18.6280   15.9270 C.ar   81  TRP81       0.0946
    137  CD2       14.7840   19.2440   16.8540 C.ar   81  TRP81       0.0152
    138  NE1       15.8960   17.5160   15.9230 N.ar   81  TRP81      -0.2442
    139  CE2       14.6980   17.8630   16.4930 C.ar   81  TRP81       0.0810
    140  CE3       13.6880   19.8540   17.4990 C.ar   81  TRP81       0.0012
    141  CZ2       13.5400   17.1040   16.6820 C.ar   81  TRP81       0.0191
    142  CZ3       12.5310   19.0870   17.7190 C.ar   81  TRP81       0.0001
    143  CH2       12.4710   17.7180   17.3280 C.ar   81  TRP81       0.0015
    144  N         16.7610    8.4070   18.4060 N.3    93  ASP93      -0.1225
    145  CA        15.7570    7.6510   17.6240 C.3    93  ASP93       0.1805
    146  C         16.1700    6.1980   17.7360 C.2    93  ASP93       0.2597
    147  O         17.3830    5.9040   17.8800 O.2    93  ASP93      -0.2718
    148  CB        15.7630    8.0640   16.1420 C.3    93  ASP93       0.1424
    149  CG        15.6180    9.5700   15.9410 C.2    93  ASP93       0.3668
    150  OD1       14.4740   10.0450   16.0350 O.co2  93  ASP93      -0.2456
    151  OD2       16.6290   10.2650   15.6680 O.co2  93  ASP93      -0.2456
    152  N         15.2060    5.2770   17.7080 N.am   94  GLN94      -0.1979
    153  CA        15.5830    3.8560   17.8260 C.3    94  GLN94       0.1601
    154  C         14.5110    2.9270   17.3130 C.2    94  GLN94       0.2287
    155  O         13.3370    3.3290   17.1150 O.2    94  GLN94      -0.2864
    156  CB        16.0090    3.4740   19.2630 C.3    94  GLN94       0.0394
    157  CG        14.8940    3.2790   20.2720 C.3    94  GLN94       0.0908
    158  CD        14.1410    4.5420   20.5260 C.2    94  GLN94       0.2608
    159  OE1       14.7280    5.5870   20.8420 O.2    94  GLN94      -0.2717
    160  NE2       12.8180    4.4690   20.3740 N.am   94  GLN94      -0.0878
    161  N         13.4410   13.6610   22.3490 N.3   129  THR129     -0.1203
    162  CA        13.0000   12.7400   21.2840 C.3   129  THR129      0.1994
    163  C         11.6950   13.3100   20.6900 C.2   129  THR129      0.2618
    164  O         11.0780   14.2070   21.2900 O.2   129  THR129     -0.2717
    165  CB        12.8670   11.2870   21.8030 C.3   129  THR129      0.1784
    166  OG1       12.7030   10.3680   20.7050 O.3   129  THR129     -0.2211
    167  CG2       11.7070   11.1610   22.7990 C.3   129  THR129      0.0376
    168  N         11.3060   12.8060   19.5180 N.am  130  ASP130     -0.1960
    169  CA        10.2660   13.4500   18.7200 C.3   130  ASP130      0.1825
    170  C          9.3670   12.3680   18.0610 C.2   130  ASP130      0.2464
    171  O          9.2070   12.3840   16.8360 O.2   130  ASP130     -0.2730
    172  CB        10.8840   14.3890   17.6730 C.3   130  ASP130      0.1450
    173  CG        11.7500   13.6520   16.6150 C.2   130  ASP130      0.3671
    174  OD1       12.2190   12.5020   16.8890 O.co2 130  ASP130     -0.2456
    175  OD2       11.9130   14.2300   15.5070 O.co2 130  ASP130     -0.2456
    176  N          8.7770   11.4680   18.8770 N.am  131  PRO131     -0.2727
    177  CA         7.8990   10.4550   18.2520 C.3   131  PRO131      0.1402
    178  C          6.7360   11.1210   17.5270 C.2   131  PRO131      0.2269
    179  O          6.3130   12.2180   17.9100 O.2   131  PRO131     -0.2865
    180  CB         7.3710    9.6500   19.4450 C.3   131  PRO131      0.0296
    181  CG         7.5420   10.5650   20.6660 C.3   131  PRO131      0.0237
    182  CD         8.8220   11.3190   20.3500 C.3   131  PRO131      0.0939
    183  N          9.0690    5.8770   25.8350 N.3   142  TYR142     -0.1241
    184  CA         9.9100    6.9860   26.3010 C.3   142  TYR142      0.1605
    185  C          9.5150    7.4500   27.6940 C.2   142  TYR142      0.2264
    186  O         10.3750    7.7660   28.5030 O.2   142  TYR142     -0.2867
    187  CB         9.8640    8.1530   25.3190 C.3   142  TYR142      0.0534
    188  CG        10.6220    7.8860   24.0360 C.ar  142  TYR142     -0.0201
    189  CD1       11.9790    7.5500   24.0700 C.ar  142  TYR142     -0.0009
    190  CD2       10.0050    8.0450   22.7900 C.ar  142  TYR142     -0.0009
    191  CE1       12.7090    7.3400   22.8870 C.ar  142  TYR142      0.0417
    192  CE2       10.7170    7.8340   21.6100 C.ar  142  TYR142      0.0417
    193  CZ        12.0600    7.4590   21.6720 C.ar  142  TYR142      0.1957
    194  OH        12.7930    7.2630   20.5280 O.3   142  TYR142     -0.2866
    195  N          9.6430   16.2710    9.4270 N.3   157  ASP157     -0.1239
    196  CA         8.8990   15.0170    9.2990 C.3   157  ASP157      0.1674
    197  C          7.4720   15.1430    9.8430 C.2   157  ASP157      0.2266
    198  O          6.8500   14.1250   10.2330 O.2   157  ASP157     -0.2867
    199  CB         9.6090   13.8610   10.0220 C.3   157  ASP157      0.1410
    200  CG        10.8530   13.3960    9.2950 C.2   157  ASP157      0.3668
    201  OD1       11.0200   13.8000    8.1340 O.co2 157  ASP157     -0.2456
    202  OD2       11.6410   12.6290    9.8810 O.co2 157  ASP157     -0.2456
@<TRIPOS>BOND
     1    45    43   am
     2    43    42    1
     3    43    44    2
     4    42    41    1
     5    37    38    1
     6    41    38    1
     7    64    62    1
     8    38    39    1
     9    63    62    1
    10    62    59    1
    11    35    34    1
    12    35    36    2
    13    32    31    2
    14    39    46   am
    15    39    40    2
    16    34    33    1
    17    46    47    1
    18    31    33   am
    19    31    30    1
    20    59    58    1
    21    59    60    1
    22    53    55   ar
    23    53    51   ar
    24    30    29    1
    25    55    56   ar
    26    81    79   ar
    27    47    48    1
    28    47    50    1
    29    61    60    2
    30    60    65   am
    31    48    49    2
    32    50    51    1
    33    51    52   ar
    34    18    17    2
    35    79    80   ar
    36    79    78    1
    37   201   200   ar
    38    56    57    1
    39    56    54   ar
    40    29    17   am
    41    65    66    1
    42    78    77    1
    43    17    16    1
    44    52    54   ar
    45   200   202   ar
    46   200   199    1
    47   196   195    1
    48   196   197    1
    49   196   199    1
    50   124   122   ar
    51   124   125   ar
    52    66    67    1
    53    66    69    1
    54    72    70    1
    55    21    23   ar
    56    21    20   ar
    57    70    69    1
    58    70    71    1
    59    73    74    1
    60    77    74    1
    61   197   198    2
    62   122   121   ar
    63    23    24   ar
    64    16    15    1
    65    16    19    1
    66    67    68    2
    67    74    75    1
    68    15     3   am
    69   125   127   ar
    70   125   123   ar
    71   127   129   ar
    72    19    20    1
    73    20    22   ar
    74     1     2    1
    75   116   117    1
    76   121   123   ar
    77   121   120    1
    78   113   112    2
    79     3     2    1
    80     3     4    2
    81   112   111    1
    82    24    22   ar
    83    24    26   ar
    84   123   126   ar
    85   129   128   ar
    86     2     5    1
    87    22    25   ar
    88    75    76    2
    89   120   117    1
    90   117   118    1
    91    26    28   ar
    92   111   114    1
    93   111   110    1
    94    88    86    1
    95   126   128   ar
    96    96    95    2
    97    86    87    1
    98    86    83    1
    99     5     6    1
   100    25    27   ar
   101   119   118    2
   102   114   115    1
   103   118   130   am
   104    85    84    2
   105    97    95   am
   106    82    83    1
   107    28    27   ar
   108     6     8   ar
   109     6     7   ar
   110    95    94    1
   111    11     8   ar
   112    11    13   ar
   113     8    10   ar
   114     7     9   ar
   115    83    84    1
   116    13    14   ar
   117    10     9   ar
   118    10    12   ar
   119   130   131    1
   120    14    12   ar
   121    94    93    1
   122   175   173   ar
   123    93    90    1
   124   151   149   ar
   125   132   131    1
   126   132   133    2
   127   131   134    1
   128   138   136   ar
   129   138   139   ar
   130   136   135   ar
   131   149   150   ar
   132   149   148    1
   133   148   145    1
   134   102   103    1
   135   102    99    1
   136   135   134    1
   137   135   137   ar
   138   139   141   ar
   139   139   137   ar
   140   173   174   ar
   141   173   172    1
   142   141   143   ar
   143   103   105   ar
   144   103   104   ar
   145   105   107   ar
   146   171   170    2
   147   137   140   ar
   148    90    89    1
   149    90    91    1
   150   104   106   ar
   151   155   154    2
   152   107   108   ar
   153   154   153    1
   154   143   142   ar
   155   106   108   ar
   156   108   109    1
   157   140   142   ar
   158   178   179    2
   159   178   177    1
   160    99    98    1
   161    99   100    1
   162   145   146    1
   163   145   144    1
   164   172   169    1
   165   152   146   am
   166   152   153    1
   167   146   147    2
   168   153   156    1
   169    91    92    2
   170   170   169    1
   171   170   176   am
   172   177   176    1
   173   177   180    1
   174   100   101    2
   175   169   168    1
   176   176   182    1
   177   156   157    1
   178   180   181    1
   179   168   163   am
   180   157   158    1
   181   182   181    1
   182   160   158   am
   183   158   159    2
   184   194   193    1
   185   163   162    1
   186   163   164    2
   187   166   165    1
   188   162   165    1
   189   162   161    1
   190   192   193   ar
   191   192   190   ar
   192   193   191   ar
   193   165   167    1
   194   190   188   ar
   195   191   189   ar
   196   188   189   ar
   197   188   187    1
   198   187   184    1
   199   183   184    1
   200   184   185    1
   201   185   186    2
