@<TRIPOS>MOLECULE
tmp/2vqzD00.pdb
 148 140 0 0 0
SMALL
GASTEIGER

@<TRIPOS>ATOM
      1  N         17.2880  -30.9790  -15.4130 N.3     1  SER1       -0.1217
      2  CA        18.7770  -31.1090  -15.5800 C.3     1  SER1        0.1889
      3  C         19.5790  -30.7280  -14.3080 C.2     1  SER1        0.2288
      4  O         20.6510  -30.1040  -14.4000 O.2     1  SER1       -0.2866
      5  CB        19.2370  -30.2500  -16.7700 C.3     1  SER1        0.2089
      6  OG        20.5700  -30.5620  -17.1530 O.3     1  SER1       -0.2183
      7  N         23.5540  -34.8400  -11.8340 N.3     4  PHE4       -0.1227
      8  CA        24.2440  -35.5990  -12.8910 C.3     4  PHE4        0.1736
      9  C         25.6850  -35.8520  -12.5370 C.2     4  PHE4        0.2596
     10  O         26.1860  -35.3040  -11.5780 O.2     4  PHE4       -0.2718
     11  CB        24.1490  -34.9030  -14.2630 C.3     4  PHE4        0.0547
     12  CG        24.5480  -33.4470  -14.2290 C.ar    4  PHE4       -0.0202
     13  CD1       25.8620  -33.0760  -14.4660 C.ar    4  PHE4       -0.0042
     14  CD2       23.6150  -32.4690  -13.9280 C.ar    4  PHE4       -0.0042
     15  CE1       26.2350  -31.7700  -14.4120 C.ar    4  PHE4       -0.0003
     16  CE2       23.9780  -31.1480  -13.8620 C.ar    4  PHE4       -0.0003
     17  CZ        25.2920  -30.7920  -14.1110 C.ar    4  PHE4       -0.0000
     18  N         26.3220  -36.7180  -13.3180 N.am    5  SER5       -0.1938
     19  CA        27.7340  -37.0360  -13.1970 C.3     5  SER5        0.2055
     20  C         28.5060  -36.3590  -14.3440 C.2     5  SER5        0.2643
     21  O         28.1060  -36.4360  -15.5000 O.2     5  SER5       -0.2714
     22  CB        27.8700  -38.5530  -13.2860 C.3     5  SER5        0.2130
     23  OG        29.0650  -38.9800  -12.6690 O.3     5  SER5       -0.2179
     24  N         29.5980  -35.6830  -14.0360 N.am    6  PHE6       -0.1973
     25  CA        30.4740  -35.1450  -15.0730 C.3     6  PHE6        0.1639
     26  C         31.9020  -35.1440  -14.5750 C.2     6  PHE6        0.2290
     27  O         32.1940  -34.5400  -13.5380 O.2     6  PHE6       -0.2864
     28  CB        30.0280  -33.7210  -15.4850 C.3     6  PHE6        0.0560
     29  CG        30.8470  -33.1230  -16.6110 C.ar    6  PHE6       -0.0200
     30  CD1       30.8000  -33.6670  -17.8960 C.ar    6  PHE6       -0.0042
     31  CD2       31.6680  -32.0400  -16.3830 C.ar    6  PHE6       -0.0042
     32  CE1       31.5570  -33.1430  -18.9410 C.ar    6  PHE6       -0.0003
     33  CE2       32.4320  -31.4950  -17.4170 C.ar    6  PHE6       -0.0003
     34  CZ        32.3700  -32.0620  -18.7160 C.ar    6  PHE6       -0.0000
     35  N         22.6040  -29.2910   -8.3700 N.3    13  ARG13      -0.1245
     36  CA        22.2290  -27.8810   -8.4460 C.3    13  ARG13       0.1563
     37  C         21.5250  -27.4380   -7.1980 C.2    13  ARG13       0.2260
     38  O         20.5360  -28.0540   -6.7790 O.2    13  ARG13      -0.2867
     39  CB        21.2850  -27.6160   -9.6100 C.3    13  ARG13       0.0307
     40  CG        21.0140  -26.1150   -9.8160 C.3    13  ARG13       0.0489
     41  CD        20.4620  -25.8360  -11.2090 C.3    13  ARG13       0.2205
     42  NE        19.0650  -26.2420  -11.2510 N.pl3  13  ARG13      -0.0865
     43  CZ        18.3970  -26.5780  -12.3510 C.cat  13  ARG13       0.5346
     44  NH1       18.9880  -26.5710  -13.5380 N.pl3  13  ARG13       0.1354
     45  NH2       17.1260  -26.8910  -12.2520 N.pl3  13  ARG13       0.1354
     46  N         18.5840  -23.1400  -15.9200 N.3    18  SER18      -0.1217
     47  CA        19.1230  -22.8040  -17.2210 C.3    18  SER18       0.1889
     48  C         18.2490  -23.3050  -18.3530 C.2    18  SER18       0.2288
     49  O         17.3780  -24.1600  -18.1570 O.2    18  SER18      -0.2866
     50  CB        20.5690  -23.2780  -17.3640 C.3    18  SER18       0.2089
     51  OG        20.6530  -24.6810  -17.2630 O.3    18  SER18      -0.2183
     52  N         18.9310  -24.3390  -22.7470 N.3    20  LYS20      -0.1245
     53  CA        20.0290  -24.7730  -23.6310 C.3    20  LYS20       0.1561
     54  C         19.7870  -24.2530  -25.0320 C.2    20  LYS20       0.2260
     55  O         18.6320  -24.0920  -25.4730 O.2    20  LYS20      -0.2867
     56  CB        20.0840  -26.2900  -23.8050 C.3    20  LYS20       0.0271
     57  CG        20.0660  -27.1640  -22.5980 C.3    20  LYS20       0.0035
     58  CD        19.8530  -28.6080  -23.0950 C.3    20  LYS20       0.0206
     59  CE        19.5790  -29.6010  -21.9760 C.3    20  LYS20       0.1093
     60  NZ        19.1320  -30.9070  -22.5300 N.3    20  LYS20      -0.1314
     61  N         25.8800  -27.8170  -26.7640 N.3    36  ARG36      -0.1245
     62  CA        24.6740  -27.2250  -26.2170 C.3    36  ARG36       0.1563
     63  C         25.0640  -26.2730  -25.1160 C.2    36  ARG36       0.2260
     64  O         25.4780  -26.7090  -24.0350 O.2    36  ARG36      -0.2867
     65  CB        23.7130  -28.2930  -25.7190 C.3    36  ARG36       0.0307
     66  CG        23.0390  -29.0240  -26.8440 C.3    36  ARG36       0.0489
     67  CD        22.0850  -30.0550  -26.3030 C.3    36  ARG36       0.2205
     68  NE        22.1140  -31.2900  -27.0880 N.pl3  36  ARG36      -0.0865
     69  CZ        21.5990  -32.4540  -26.6860 C.cat  36  ARG36       0.5346
     70  NH1       21.0110  -32.5550  -25.4950 N.pl3  36  ARG36       0.1354
     71  NH2       21.6720  -33.5270  -27.4770 N.pl3  36  ARG36       0.1354
     72  N         24.5450  -23.8820  -22.1600 N.3    38  HIS38      -0.1241
     73  CA        23.5920  -23.5830  -21.0920 C.3    38  HIS38       0.1621
     74  C         23.5970  -22.1120  -20.7360 C.2    38  HIS38       0.2264
     75  O         24.6600  -21.5220  -20.5180 O.2    38  HIS38      -0.2867
     76  CB        23.8420  -24.4570  -19.8640 C.3    38  HIS38       0.0745
     77  CG        23.4540  -25.8900  -20.0680 C.ar   38  HIS38       0.0817
     78  ND1       22.3430  -26.4530  -19.4750 N.ar   38  HIS38      -0.2268
     79  CD2       24.0140  -26.8670  -20.8200 C.ar   38  HIS38       0.1154
     80  CE1       22.2430  -27.7190  -19.8430 C.ar   38  HIS38       0.1986
     81  NE2       23.2470  -27.9950  -20.6580 N.ar   38  HIS38      -0.2212
     82  N         23.4570  -20.5440  -12.3520 N.3    42  GLU42      -0.1245
     83  CA        23.2400  -21.7810  -11.6040 C.3    42  GLU42       0.1567
     84  C         24.3320  -21.9350  -10.5610 C.2    42  GLU42       0.2260
     85  O         25.4890  -21.5860  -10.8020 O.2    42  GLU42      -0.2867
     86  CB        23.2800  -23.0010  -12.5330 C.3    42  GLU42       0.0388
     87  CG        22.0840  -23.1470  -13.4870 C.3    42  GLU42       0.1160
     88  CD        22.2620  -24.2950  -14.4770 C.2    42  GLU42       0.3649
     89  OE1       23.3090  -24.3320  -15.1600 O.co2  42  GLU42      -0.2457
     90  OE2       21.3360  -25.1500  -14.5920 O.co2  42  GLU42      -0.2457
     91  N         26.0340  -25.0680   -8.0980 N.3    44  PHE44      -0.1241
     92  CA        26.1360  -26.5090   -7.8750 C.3    44  PHE44       0.1605
     93  C         27.0720  -26.8090   -6.7080 C.2    44  PHE44       0.2264
     94  O         28.0190  -26.0780   -6.4660 O.2    44  PHE44      -0.2867
     95  CB        26.7400  -27.2070   -9.1160 C.3    44  PHE44       0.0534
     96  CG        25.9190  -27.0740  -10.3680 C.ar   44  PHE44      -0.0203
     97  CD1       24.9350  -28.0070  -10.6760 C.ar   44  PHE44      -0.0042
     98  CD2       26.1450  -26.0280  -11.2480 C.ar   44  PHE44      -0.0042
     99  CE1       24.1760  -27.8990  -11.8430 C.ar   44  PHE44      -0.0003
    100  CE2       25.4090  -25.9060  -12.4250 C.ar   44  PHE44      -0.0003
    101  CZ        24.4340  -26.8530  -12.7310 C.ar   44  PHE44      -0.0000
    102  N         28.0120  -20.4330  -11.6600 N.3    56  LYS56      -0.1245
    103  CA        28.2550  -20.3350  -13.0710 C.3    56  LYS56       0.1561
    104  C         27.1190  -19.5260  -13.7190 C.2    56  LYS56       0.2260
    105  O         26.0220  -19.4380  -13.1780 O.2    56  LYS56      -0.2867
    106  CB        28.3150  -21.7710  -13.5830 C.3    56  LYS56       0.0271
    107  CG        28.1360  -21.9390  -15.0150 C.3    56  LYS56       0.0035
    108  CD        27.4370  -23.2580  -15.2950 C.3    56  LYS56       0.0206
    109  CE        27.6410  -23.5660  -16.7430 C.3    56  LYS56       0.1093
    110  NZ        26.8740  -22.5940  -17.5230 N.3    56  LYS56      -0.1314
    111  N         33.2290  -27.4370  -17.6770 N.3    83  PHE83      -0.1241
    112  CA        31.7910  -27.4000  -17.4810 C.3    83  PHE83       0.1605
    113  C         31.1760  -26.0030  -17.7030 C.2    83  PHE83       0.2264
    114  O         30.0260  -25.8800  -18.1630 O.2    83  PHE83      -0.2867
    115  CB        31.4820  -27.8980  -16.0780 C.3    83  PHE83       0.0534
    116  CG        30.0350  -27.9000  -15.7460 C.ar   83  PHE83      -0.0203
    117  CD1       29.2470  -29.0230  -16.0550 C.ar   83  PHE83      -0.0042
    118  CD2       29.4580  -26.8150  -15.1070 C.ar   83  PHE83      -0.0042
    119  CE1       27.9070  -29.0400  -15.7540 C.ar   83  PHE83      -0.0003
    120  CE2       28.0970  -26.8220  -14.7890 C.ar   83  PHE83      -0.0003
    121  CZ        27.3190  -27.9460  -15.1090 C.ar   83  PHE83      -0.0000
    122  N         31.9520  -23.8650  -19.9000 N.3    85  GLN85      -0.1245
    123  CA        31.8200  -23.6130  -21.3290 C.3    85  GLN85       0.1566
    124  C         32.4200  -22.2650  -21.7650 C.2    85  GLN85       0.2260
    125  O         32.1000  -21.7800  -22.8480 O.2    85  GLN85      -0.2867
    126  CB        30.3630  -23.7310  -21.7690 C.3    85  GLN85       0.0367
    127  CG        29.8000  -25.1080  -21.5300 C.3    85  GLN85       0.0905
    128  CD        28.3740  -25.2650  -22.0150 C.2    85  GLN85       0.2608
    129  OE1       27.5340  -24.4170  -21.7510 O.2    85  GLN85      -0.2717
    130  NE2       28.1000  -26.3580  -22.7410 N.am   85  GLN85      -0.0878
    131  N         31.4940  -37.1790  -27.1480 N.3   103  ASN103     -0.1240
    132  CA        30.8140  -35.9090  -27.4240 C.3   103  ASN103      0.1653
    133  C         31.7700  -34.7240  -27.1760 C.2   103  ASN103      0.2266
    134  O         32.8110  -34.9030  -26.5280 O.2   103  ASN103     -0.2867
    135  CB        29.4270  -35.7950  -26.7310 C.3   103  ASN103      0.1155
    136  CG        29.5050  -35.6500  -25.2160 C.2   103  ASN103      0.2627
    137  OD1       30.5520  -35.3750  -24.6470 O.2   103  ASN103     -0.2716
    138  ND2       28.3690  -35.8260  -24.5590 N.am  103  ASN103     -0.0877
    139  N         33.1280  -34.0140  -23.5620 N.3   105  HIS105     -0.1241
    140  CA        34.0630  -35.0440  -23.0910 C.3   105  HIS105      0.1621
    141  C         35.3580  -35.0610  -23.9010 C.2   105  HIS105      0.2264
    142  O         36.4020  -35.4690  -23.4100 O.2   105  HIS105     -0.2867
    143  CB        33.3920  -36.4240  -23.0760 C.3   105  HIS105      0.0745
    144  CG        32.4330  -36.5950  -21.9400 C.ar  105  HIS105      0.0817
    145  ND1       31.1890  -35.9980  -21.9200 N.ar  105  HIS105     -0.2268
    146  CD2       32.5610  -37.2410  -20.7540 C.ar  105  HIS105      0.1154
    147  CE1       30.5840  -36.2880  -20.7820 C.ar  105  HIS105      0.1986
    148  NE2       31.3910  -37.0430  -20.0580 N.ar  105  HIS105     -0.2212
@<TRIPOS>BOND
     1    71    69    1
     2   132   133    1
     3   132   131    1
     4   132   135    1
     5   133   134    2
     6    68    69    2
     7    68    67    1
     8    66    67    1
     9    66    65    1
    10    61    62    1
    11   135   136    1
    12    69    70    1
    13    62    65    1
    14    62    63    1
    15    55    54    2
    16   136   137    2
    17   136   138   am
    18    63    64    2
    19    54    53    1
    20   141   142    2
    21   141   140    1
    22    56    53    1
    23    56    57    1
    24    53    52    1
    25   139   140    1
    26    58    57    1
    27    58    59    1
    28   140   143    1
    29   143   144    1
    30   125   124    2
    31   130   128   am
    32    60    59    1
    33    72    73    1
    34   128   129    2
    35   128   127    1
    36   144   145   ar
    37   144   146   ar
    38   145   147   ar
    39   126   127    1
    40   126   123    1
    41   124   123    1
    42   123   122    1
    43    73    74    1
    44    73    76    1
    45    79    81   ar
    46    79    77   ar
    47   147   148   ar
    48   146   148   ar
    49    74    75    2
    50    81    80   ar
    51    77    76    1
    52    77    78   ar
    53    80    78   ar
    54    32    34   ar
    55    32    30   ar
    56    34    33   ar
    57    48    49    2
    58    48    47    1
    59   114   113    2
    60    30    29   ar
    61   113   112    1
    62   111   112    1
    63   110   109    1
    64   112   115    1
    65    33    31   ar
    66    50    51    1
    67    50    47    1
    68    47    46    1
    69     6     5    1
    70     5     2    1
    71   109   108    1
    72    29    31   ar
    73    29    28    1
    74   115   116    1
    75   117   119   ar
    76   117   116   ar
    77   119   121   ar
    78   116   118   ar
    79     2     1    1
    80     2     3    1
    81    21    20    2
    82    28    25    1
    83   108   107    1
    84    89    88   ar
    85   121   120   ar
    86   118   120   ar
    87    25    26    1
    88    25    24    1
    89   107   106    1
    90    90    88   ar
    91    26    27    2
    92    88    87    1
    93    13    15   ar
    94    13    12   ar
    95    15    17   ar
    96     4     3    2
    97    20    24   am
    98    20    19    1
    99    11    12    1
   100    11     8    1
   101    12    14   ar
   102    17    16   ar
   103    14    16   ar
   104   104   105    2
   105   104   103    1
   106   106   103    1
   107    44    43    1
   108    87    86    1
   109    18    19    1
   110    18     9   am
   111    22    19    1
   112    22    23    1
   113   103   102    1
   114     8     9    1
   115     8     7    1
   116   101   100   ar
   117   101    99   ar
   118     9    10    2
   119    86    83    1
   120   100    98   ar
   121    82    83    1
   122    43    45    1
   123    43    42    2
   124    99    97   ar
   125    83    84    1
   126    42    41    1
   127    98    96   ar
   128    41    40    1
   129    85    84    2
   130    97    96   ar
   131    96    95    1
   132    40    39    1
   133    39    36    1
   134    95    92    1
   135    36    35    1
   136    36    37    1
   137    91    92    1
   138    92    93    1
   139    37    38    2
   140    93    94    2
