@<TRIPOS>MOLECULE
tmp/2vr0F06.pdb
 110 105 0 0 0
SMALL
GASTEIGER

@<TRIPOS>ATOM
      1  N         38.9480  -20.2910    9.3040 N.3   100  ASN100     -0.1240
      2  CA        39.8320  -19.3570    9.9690 C.3   100  ASN100      0.1653
      3  C         40.6680  -18.5460    8.9940 C.2   100  ASN100      0.2266
      4  O         40.8410  -17.3420    9.1710 O.2   100  ASN100     -0.2867
      5  CB        40.7050  -20.0320   11.0110 C.3   100  ASN100      0.1155
      6  CG        40.9770  -19.1200   12.1900 C.2   100  ASN100      0.2627
      7  OD1       40.0460  -18.6260   12.8370 O.2   100  ASN100     -0.2716
      8  ND2       42.2480  -18.8680   12.4610 N.am  100  ASN100     -0.0877
      9  N         38.4780  -15.8450    7.9030 N.3   103  CYS103     -0.1221
     10  CA        38.4750  -14.7830    8.9250 C.3   103  CYS103      0.1808
     11  C         39.5810  -13.7880    8.6450 C.2   103  CYS103      0.2601
     12  O         39.3600  -12.5730    8.5940 O.2   103  CYS103     -0.2717
     13  CB        38.7370  -15.3420   10.3140 C.3   103  CYS103      0.0970
     14  SG        37.6270  -16.5910   10.8470 S.3   103  CYS103     -0.0800
     15  N         40.7840  -14.3280    8.4860 N.am  104  LYS104     -0.1979
     16  CA        41.9440  -13.5200    8.1760 C.3   104  LYS104      0.1596
     17  C         41.7180  -12.7090    6.8930 C.2   104  LYS104      0.2287
     18  O         42.0380  -11.5100    6.8610 O.2   104  LYS104     -0.2864
     19  CB        43.1950  -14.3870    8.0810 C.3   104  LYS104      0.0298
     20  CG        43.5710  -15.0780    9.3920 C.3   104  LYS104      0.0038
     21  CD        44.7400  -16.0410    9.1910 C.3   104  LYS104      0.0206
     22  CE        45.0760  -16.7860   10.4700 C.3   104  LYS104      0.1093
     23  NZ        46.3860  -17.4900   10.4130 N.3   104  LYS104     -0.1314
     24  N         39.2720   -9.5600    7.7250 N.3   107  HIS107     -0.1241
     25  CA        39.5300   -8.7770    8.9320 C.3   107  HIS107      0.1621
     26  C         41.0330   -8.6810    9.2410 C.2   107  HIS107      0.2264
     27  O         41.4720   -8.7680   10.3970 O.2   107  HIS107     -0.2867
     28  CB        38.7640   -9.3590   10.1150 C.3   107  HIS107      0.0745
     29  CG        37.2840   -9.4510    9.8970 C.ar  107  HIS107      0.0817
     30  ND1       36.4560   -8.3470    9.9050 N.ar  107  HIS107     -0.2268
     31  CD2       36.4800  -10.5200    9.6840 C.ar  107  HIS107      0.1154
     32  CE1       35.2100   -8.7320    9.6960 C.ar  107  HIS107      0.1986
     33  NE2       35.1960  -10.0470    9.5630 N.ar  107  HIS107     -0.2212
     34  N         42.0360   -4.8770   10.9320 N.3   110  THR110     -0.1203
     35  CA        41.7250   -4.7510   12.3380 C.3   110  THR110      0.1994
     36  C         42.8340   -5.3550   13.2260 C.2   110  THR110      0.2617
     37  O         43.0610   -4.8920   14.3530 O.2   110  THR110     -0.2717
     38  CB        40.3410   -5.3930   12.6250 C.3   110  THR110      0.1784
     39  OG1       39.3270   -4.5820   12.0260 O.3   110  THR110     -0.2211
     40  CG2       40.0670   -5.5620   14.1430 C.3   110  THR110      0.0376
     41  N         43.5250   -6.3580   12.6860 N.am  111  ASN111     -0.1974
     42  CA        44.4660   -7.1770   13.4350 C.3   111  ASN111      0.1688
     43  C         45.9680   -6.9850   13.1030 C.2   111  ASN111      0.2292
     44  O         46.8020   -7.7330   13.6490 O.2   111  ASN111     -0.2864
     45  CB        44.0960   -8.6590   13.2670 C.3   111  ASN111      0.1181
     46  CG        42.8030   -9.0410   13.9890 C.2   111  ASN111      0.2629
     47  OD1       42.7990   -9.3070   15.2100 O.2   111  ASN111     -0.2716
     48  ND2       41.6990   -9.0930   13.2350 N.am  111  ASN111     -0.0877
     49  N         47.3080  -11.5840   17.5080 N.3   116  SER116     -0.1202
     50  CA        46.0510  -12.2550   17.7710 C.3   116  SER116      0.2020
     51  C         46.0260  -13.6440   17.1520 C.2   116  SER116      0.2618
     52  O         45.1710  -14.4700   17.4810 O.2   116  SER116     -0.2717
     53  CB        44.9320  -11.4360   17.1720 C.3   116  SER116      0.2103
     54  OG        45.3430  -10.9460   15.9090 O.3   116  SER116     -0.2182
     55  N         46.9610  -13.8960   16.2470 N.am  117  MET117     -0.1979
     56  CA        47.0200  -15.1780   15.5810 C.3   117  MET117      0.1605
     57  C         47.6670  -16.2510   16.4360 C.2   117  MET117      0.2287
     58  O         47.4590  -17.4290   16.1890 O.2   117  MET117     -0.2864
     59  CB        47.7580  -15.0330   14.2630 C.3   117  MET117      0.0413
     60  CG        46.8490  -15.0330   13.0560 C.3   117  MET117      0.0598
     61  SD        47.7020  -14.6060   11.5260 S.3   117  MET117     -0.1393
     62  CE        49.1650  -15.6500   11.5290 C.3   117  MET117      0.0692
     63  N         47.7460  -16.1960   20.0180 N.3   119  ALA119     -0.1231
     64  CA        46.9930  -16.3930   21.2710 C.3   119  ALA119      0.1694
     65  C         46.1670  -17.7190   21.3130 C.2   119  ALA119      0.2591
     66  O         46.5540  -18.6940   21.9590 O.2   119  ALA119     -0.2718
     67  CB        46.0860  -15.1570   21.5130 C.3   119  ALA119      0.0304
     68  N         45.0440  -17.7290   20.6040 N.am  120  LYS120     -0.1980
     69  CA        44.1970  -18.9060   20.4290 C.3   120  LYS120      0.1596
     70  C         44.3690  -19.4740   19.0180 C.2   120  LYS120      0.2287
     71  O         44.7030  -18.7270   18.0730 O.2   120  LYS120     -0.2864
     72  CB        42.7340  -18.5080   20.6110 C.3   120  LYS120      0.0298
     73  CG        42.4660  -17.5340   21.7630 C.3   120  LYS120      0.0038
     74  CD        42.8390  -18.1260   23.1440 C.3   120  LYS120      0.0206
     75  CE        42.2500  -17.3060   24.2720 C.3   120  LYS120      0.1093
     76  NZ        42.3720  -18.0400   25.5370 N.3   120  LYS120     -0.1314
     77  N         42.2160  -20.4780   16.7810 N.3   122  TYR122     -0.1227
     78  CA        41.2750  -19.9010   15.8230 C.3   122  TYR122      0.1736
     79  C         40.6680  -18.6170   16.3750 C.2   122  TYR122      0.2595
     80  O         40.4680  -18.5050   17.5800 O.2   122  TYR122     -0.2718
     81  CB        40.1480  -20.8950   15.5330 C.3   122  TYR122      0.0548
     82  CG        40.6050  -22.2950   15.1440 C.ar  122  TYR122     -0.0200
     83  CD1       40.6000  -23.3470   16.0760 C.ar  122  TYR122     -0.0009
     84  CD2       41.0260  -22.5740   13.8320 C.ar  122  TYR122     -0.0009
     85  CE1       41.0060  -24.6430   15.7070 C.ar  122  TYR122      0.0417
     86  CE2       41.4330  -23.8650   13.4540 C.ar  122  TYR122      0.0417
     87  CZ        41.4240  -24.8840   14.3890 C.ar  122  TYR122      0.1957
     88  OH        41.8330  -26.1330   13.9940 O.3   122  TYR122     -0.2866
     89  N         40.3670  -17.6650   15.4900 N.am  123  CYS123     -0.1970
     90  CA        39.6770  -16.4080   15.8390 C.3   123  CYS123      0.1712
     91  C         38.4580  -16.6210   16.6990 C.2   123  CYS123      0.2296
     92  O         38.1860  -15.8430   17.6170 O.2   123  CYS123     -0.2864
     93  CB        39.1570  -15.7140   14.5850 C.3   123  CYS123      0.0983
     94  SG        40.3540  -15.4310   13.3060 S.3   123  CYS123     -0.0798
     95  N         37.6840  -16.6740   20.4810 N.3   126  CYS126     -0.1221
     96  CA        37.2330  -15.4650   21.1550 C.3   126  CYS126      0.1808
     97  C         35.8910  -15.0430   20.6020 C.2   126  CYS126      0.2601
     98  O         34.9400  -14.8290   21.3560 O.2   126  CYS126     -0.2717
     99  CB        38.2200  -14.3310   20.9750 C.3   126  CYS126      0.0970
    100  SG        39.6240  -14.4490   22.0510 S.3   126  CYS126     -0.0800
    101  N         35.8050  -14.9370   19.2790 N.am  127  HIS127     -0.1975
    102  CA        34.5620  -14.5370   18.6510 C.3   127  HIS127      0.1656
    103  C         33.6150  -15.7500   18.5570 C.2   127  HIS127      0.2291
    104  O         33.2750  -16.2270   17.4570 O.2   127  HIS127     -0.2864
    105  CB        34.8530  -13.8630   17.3090 C.3   127  HIS127      0.0771
    106  CG        35.7250  -12.6450   17.4250 C.ar  127  HIS127      0.0820
    107  ND1       35.2350  -11.4140   17.8060 N.ar  127  HIS127     -0.2267
    108  CD2       37.0560  -12.4710   17.2140 C.ar  127  HIS127      0.1154
    109  CE1       36.2240  -10.5360   17.8210 C.ar  127  HIS127      0.1986
    110  NE2       37.3380  -11.1490   17.4630 N.ar  127  HIS127     -0.2212
@<TRIPOS>BOND
     1    18    17    2
     2    17    16    1
     3    24    25    1
     4     9    10    1
     5    19    16    1
     6    19    20    1
     7    16    15    1
     8    15    11   am
     9    12    11    2
    10    11    10    1
    11    10    13    1
    12    25    26    1
    13    25    28    1
    14     3     4    2
    15     3     2    1
    16    21    20    1
    17    21    22    1
    18    26    27    2
    19     1     2    1
    20    33    31   ar
    21    33    32   ar
    22    31    29   ar
    23    32    30   ar
    24    29    30   ar
    25    29    28    1
    26     2     5    1
    27    13    14    1
    28    23    22    1
    29    34    35    1
    30     5     6    1
    31    61    62    1
    32    61    60    1
    33    39    38    1
    34     6     8   am
    35     6     7    2
    36    35    38    1
    37    35    36    1
    38    38    40    1
    39    41    36   am
    40    41    42    1
    41    60    59    1
    42    43    42    1
    43    43    44    2
    44    36    37    2
    45    48    46   am
    46    45    42    1
    47    45    46    1
    48    94    93    1
    49    86    84   ar
    50    86    87   ar
    51    84    82   ar
    52    46    47    2
    53    88    87    1
    54    59    56    1
    55    87    85   ar
    56    93    90    1
    57    82    81    1
    58    82    83   ar
    59    89    90    1
    60    89    79   am
    61    81    78    1
    62    56    55    1
    63    56    57    1
    64    85    83   ar
    65    78    79    1
    66    78    77    1
    67    90    91    1
    68    54    53    1
    69    58    57    2
    70    55    51   am
    71    79    80    2
    72    91    92    2
    73    51    52    2
    74    51    50    1
    75    53    50    1
    76   108   106   ar
    77   108   110   ar
    78   105   106    1
    79   105   102    1
    80   106   107   ar
    81   104   103    2
    82   110   109   ar
    83    49    50    1
    84   107   109   ar
    85    71    70    2
    86   103   102    1
    87   102   101    1
    88    70    69    1
    89   101    97   am
    90    63    64    1
    91    69    68    1
    92    69    72    1
    93    95    96    1
    94    97    96    1
    95    97    98    2
    96    68    65   am
    97    72    73    1
    98    99    96    1
    99    99   100    1
   100    64    65    1
   101    64    67    1
   102    65    66    2
   103    73    74    1
   104    74    75    1
   105    75    76    1
