@<TRIPOS>MOLECULE
tmp/2vr0F05.pdb
 127 121 0 0 0
SMALL
GASTEIGER

@<TRIPOS>ATOM
      1  N         22.6770  -13.4600   12.1750 N.3    46  SER46      -0.1202
      2  CA        23.9580  -12.8810   12.6090 C.3    46  SER46       0.2020
      3  C         24.4450  -11.7340   11.7460 C.2    46  SER46       0.2619
      4  O         23.9310  -11.5040   10.6460 O.2    46  SER46      -0.2717
      5  CB        25.0530  -13.9550   12.6260 C.3    46  SER46       0.2103
      6  OG        25.4700  -14.2760   11.3050 O.3    46  SER46      -0.2182
      7  N         25.4780  -11.0520   12.2360 N.am   47  GLY47      -0.1942
      8  CA        26.1480   -9.9890   11.4830 C.3    47  GLY47       0.2014
      9  C         26.5960  -10.3710   10.0740 C.2    47  GLY47       0.2638
     10  O         26.7180   -9.4940    9.2000 O.2    47  GLY47      -0.2714
     11  N         26.8260  -11.6710    9.8520 N.am   48  HIS48      -0.1973
     12  CA        27.3910  -12.1630    8.6000 C.3    48  HIS48       0.1656
     13  C         26.3050  -12.6380    7.6260 C.2    48  HIS48       0.2291
     14  O         26.5940  -13.3130    6.6210 O.2    48  HIS48      -0.2864
     15  CB        28.4310  -13.2680    8.8610 C.3    48  HIS48       0.0771
     16  CG        29.7270  -12.7730    9.4380 C.ar   48  HIS48       0.0820
     17  ND1       29.9990  -12.7990   10.7890 N.ar   48  HIS48      -0.2267
     18  CD2       30.8310  -12.2520    8.8490 C.ar   48  HIS48       0.1154
     19  CE1       31.2080  -12.3120   11.0080 C.ar   48  HIS48       0.1986
     20  NE2       31.7330  -11.9670    9.8480 N.ar   48  HIS48      -0.2212
     21  N         26.6200  -12.1550    3.6480 N.3    51  ILE51      -0.1245
     22  CA        27.6500  -12.8460    2.8720 C.3    51  ILE51       0.1561
     23  C         27.2390  -14.3160    2.7310 C.2    51  ILE51       0.2260
     24  O         26.3930  -14.7980    3.4810 O.2    51  ILE51      -0.2867
     25  CB        29.0710  -12.6940    3.4830 C.3    51  ILE51       0.0252
     26  CG1       29.1560  -13.3360    4.8710 C.3    51  ILE51       0.0019
     27  CG2       29.4700  -11.2280    3.5440 C.3    51  ILE51       0.0019
     28  CD1       30.5750  -13.6270    5.3400 C.3    51  ILE51       0.0001
     29  N         31.5780  -18.0620    1.3900 N.3    55  ASP55      -0.1225
     30  CA        32.4580  -16.9420    1.7190 C.3    55  ASP55       0.1805
     31  C         33.2130  -17.2370    3.0240 C.2    55  ASP55       0.2598
     32  O         34.2980  -16.7210    3.2610 O.2    55  ASP55      -0.2718
     33  CB        31.6650  -15.6380    1.8310 C.3    55  ASP55       0.1424
     34  CG        31.4620  -14.9440    0.4880 C.2    55  ASP55       0.3668
     35  OD1       30.9490  -13.8090    0.4820 O.co2  55  ASP55      -0.2456
     36  OD2       31.8050  -15.5190   -0.5610 O.co2  55  ASP55      -0.2456
     37  N         32.6440  -18.0840    3.8650 N.am   56  CYS56      -0.1970
     38  CA        33.3940  -18.6120    4.9860 C.3    56  CYS56       0.1712
     39  C         33.8250  -20.0680    4.7830 C.2    56  CYS56       0.2296
     40  O         34.9430  -20.4470    5.1350 O.2    56  CYS56      -0.2864
     41  CB        32.6030  -18.4740    6.2790 C.3    56  CYS56       0.0983
     42  SG        32.6900  -16.8430    6.9610 S.3    56  CYS56      -0.0798
     43  N         38.7900  -18.9300   -0.9370 N.3    60  HIS60      -0.1241
     44  CA        38.5410  -17.8260   -1.8830 C.3    60  HIS60       0.1621
     45  C         39.2470  -17.9740   -3.2500 C.2    60  HIS60       0.2264
     46  O         38.7560  -17.4710   -4.2620 O.2    60  HIS60      -0.2867
     47  CB        38.8670  -16.4630   -1.2430 C.3    60  HIS60       0.0745
     48  CG        37.9020  -16.0460   -0.1700 C.ar   60  HIS60       0.0817
     49  ND1       38.2310  -15.1430    0.8180 N.ar   60  HIS60      -0.2268
     50  CD2       36.6190  -16.4100    0.0720 C.ar   60  HIS60       0.1154
     51  CE1       37.1930  -14.9650    1.6180 C.ar   60  HIS60       0.1986
     52  NE2       36.2030  -15.7240    1.1880 N.ar   60  HIS60      -0.2212
     53  N         37.8980  -21.9390    7.1490 N.3    99  VAL99      -0.1245
     54  CA        37.1340  -20.8650    7.7740 C.3    99  VAL99       0.1561
     55  C         38.0610  -19.8380    8.4210 C.2    99  VAL99       0.2260
     56  O         37.9840  -18.6420    8.1080 O.2    99  VAL99      -0.2867
     57  CB        36.1030  -21.3940    8.8080 C.3    99  VAL99       0.0252
     58  CG1       35.6100  -20.2810    9.7290 C.3    99  VAL99       0.0019
     59  CG2       34.9160  -22.0370    8.0980 C.3    99  VAL99       0.0019
     60  N         39.6400  -17.6310    6.1130 N.3   102  ASN102     -0.1225
     61  CA        38.7220  -16.6220    5.5980 C.3   102  ASN102      0.1785
     62  C         38.3820  -15.5430    6.6060 C.2   102  ASN102      0.2597
     63  O         38.0810  -14.4280    6.2040 O.2   102  ASN102     -0.2718
     64  CB        37.4810  -17.2450    4.9760 C.3   102  ASN102      0.1169
     65  CG        37.8140  -18.1130    3.7680 C.2   102  ASN102      0.2627
     66  OD1       38.6420  -17.7500    2.9180 O.2   102  ASN102     -0.2716
     67  ND2       37.1770  -19.2750    3.6960 N.am  102  ASN102     -0.0877
     68  N         38.4780  -15.8450    7.9030 N.am  103  CYS103     -0.1970
     69  CA        38.4750  -14.7830    8.9250 C.3   103  CYS103      0.1712
     70  C         39.5810  -13.7880    8.6450 C.2   103  CYS103      0.2296
     71  O         39.3600  -12.5730    8.5940 O.2   103  CYS103     -0.2864
     72  CB        38.7370  -15.3420   10.3140 C.3   103  CYS103      0.0983
     73  SG        37.6270  -16.5910   10.8470 S.3   103  CYS103     -0.0798
     74  N         39.1570  -11.2650    5.5820 N.3   106  CYS106     -0.1221
     75  CA        38.2900  -10.0910    5.5860 C.3   106  CYS106      0.1808
     76  C         38.5400   -9.1040    6.7040 C.2   106  CYS106      0.2601
     77  O         38.0570   -7.9620    6.6410 O.2   106  CYS106     -0.2717
     78  CB        36.8340  -10.5220    5.6290 C.3   106  CYS106      0.0970
     79  SG        36.3020  -11.3190    4.1320 S.3   106  CYS106     -0.0800
     80  N         39.2720   -9.5600    7.7250 N.am  107  HIS107     -0.1975
     81  CA        39.5300   -8.7770    8.9320 C.3   107  HIS107      0.1656
     82  C         41.0330   -8.6810    9.2410 C.2   107  HIS107      0.2291
     83  O         41.4720   -8.7680   10.3970 O.2   107  HIS107     -0.2864
     84  CB        38.7640   -9.3590   10.1150 C.3   107  HIS107      0.0771
     85  CG        37.2840   -9.4510    9.8970 C.ar  107  HIS107      0.0820
     86  ND1       36.4560   -8.3470    9.9050 N.ar  107  HIS107     -0.2267
     87  CD2       36.4800  -10.5200    9.6840 C.ar  107  HIS107      0.1154
     88  CE1       35.2100   -8.7320    9.6960 C.ar  107  HIS107      0.1986
     89  NE2       35.1960  -10.0470    9.5630 N.ar  107  HIS107     -0.2212
     90  N         40.3670  -17.6650   15.4900 N.3   123  CYS123     -0.1221
     91  CA        39.6770  -16.4080   15.8390 C.3   123  CYS123      0.1808
     92  C         38.4580  -16.6210   16.6990 C.2   123  CYS123      0.2601
     93  O         38.1860  -15.8430   17.6170 O.2   123  CYS123     -0.2717
     94  CB        39.1570  -15.7140   14.5850 C.3   123  CYS123      0.0970
     95  SG        40.3540  -15.4310   13.3060 S.3   123  CYS123     -0.0800
     96  N         37.7110  -17.6660   16.3480 N.am  124  THR124     -0.1953
     97  CA        36.4320  -18.0000   16.9570 C.3   124  THR124      0.1897
     98  C         36.5800  -18.5170   18.3830 C.2   124  THR124      0.2313
     99  O         35.5860  -18.7210   19.0650 O.2   124  THR124     -0.2863
    100  CB        35.6320  -19.0290   16.0920 C.3   124  THR124      0.1794
    101  OG1       36.4690  -20.1340   15.7490 O.3   124  THR124     -0.2208
    102  CG2       35.1450  -18.3810   14.7980 C.3   124  THR124      0.0378
    103  N         35.8050  -14.9370   19.2790 N.3   127  HIS127     -0.1241
    104  CA        34.5620  -14.5370   18.6510 C.3   127  HIS127      0.1621
    105  C         33.6150  -15.7500   18.5570 C.2   127  HIS127      0.2264
    106  O         33.2750  -16.2270   17.4570 O.2   127  HIS127     -0.2867
    107  CB        34.8530  -13.8630   17.3090 C.3   127  HIS127      0.0745
    108  CG        35.7250  -12.6450   17.4250 C.ar  127  HIS127      0.0817
    109  ND1       35.2350  -11.4140   17.8060 N.ar  127  HIS127     -0.2268
    110  CD2       37.0560  -12.4710   17.2140 C.ar  127  HIS127      0.1154
    111  CE1       36.2240  -10.5360   17.8210 C.ar  127  HIS127      0.1986
    112  NE2       37.3380  -11.1490   17.4630 N.ar  127  HIS127     -0.2212
    113  N         30.4400  -16.5930   19.0920 N.3   129  ASN129     -0.1225
    114  CA        29.1250  -16.6290   18.4360 C.3   129  ASN129      0.1785
    115  C         29.1250  -16.5250   16.9030 C.2   129  ASN129      0.2597
    116  O         28.0970  -16.7710   16.2770 O.2   129  ASN129     -0.2718
    117  CB        28.1420  -15.6250   19.0710 C.3   129  ASN129      0.1169
    118  CG        27.6680  -16.0560   20.4780 C.2   129  ASN129      0.2627
    119  OD1       27.2230  -17.1990   20.6990 O.2   129  ASN129     -0.2716
    120  ND2       27.7530  -15.1260   21.4240 N.am  129  ASN129     -0.0877
    121  N         30.2690  -16.1740   16.3080 N.am  130  VAL130     -0.1980
    122  CA        30.4080  -16.2220   14.8590 C.3   130  VAL130      0.1595
    123  C         30.2740  -17.6690   14.4160 C.2   130  VAL130      0.2287
    124  O         29.8590  -17.9440   13.2850 O.2   130  VAL130     -0.2864
    125  CB        31.7280  -15.5980   14.3710 C.3   130  VAL130      0.0276
    126  CG1       31.8920  -15.7700   12.8580 C.3   130  VAL130      0.0022
    127  CG2       31.7560  -14.1090   14.7170 C.3   130  VAL130      0.0022
@<TRIPOS>BOND
     1    46    45    2
     2    45    44    1
     3    44    47    1
     4    44    43    1
     5    47    48    1
     6    36    34   ar
     7    48    50   ar
     8    48    49   ar
     9    50    52   ar
    10    35    34   ar
    11    34    33    1
    12    49    51   ar
    13    52    51   ar
    14    29    30    1
    15    30    33    1
    16    30    31    1
    17    23    22    1
    18    23    24    2
    19    22    25    1
    20    22    21    1
    21    66    65    2
    22    31    32    2
    23    31    37   am
    24    25    27    1
    25    25    26    1
    26    67    65   am
    27    65    64    1
    28    37    38    1
    29    79    78    1
    30    39    38    1
    31    39    40    2
    32    26    28    1
    33    64    61    1
    34    38    41    1
    35    74    75    1
    36    75    78    1
    37    75    76    1
    38    61    60    1
    39    61    62    1
    40    63    62    2
    41    41    42    1
    42    62    68   am
    43    14    13    2
    44    77    76    2
    45    76    80   am
    46    53    54    1
    47    13    12    1
    48    80    81    1
    49    54    55    1
    50    54    57    1
    51    68    69    1
    52    59    57    1
    53    56    55    2
    54    71    70    2
    55    12    15    1
    56    12    11    1
    57    70    69    1
    58    57    58    1
    59    18    16   ar
    60    18    20   ar
    61    15    16    1
    62    69    72    1
    63    81    82    1
    64    81    84    1
    65    10     9    2
    66    82    83    2
    67    16    17   ar
    68    89    87   ar
    69    89    88   ar
    70    87    85   ar
    71    88    86   ar
    72    20    19   ar
    73    11     9   am
    74    85    86   ar
    75    85    84    1
    76     9     8    1
    77    72    73    1
    78     4     3    2
    79    17    19   ar
    80     6     5    1
    81     8     7    1
    82     3     7   am
    83     3     2    1
    84     1     2    1
    85     2     5    1
    86   126   125    1
    87   124   123    2
    88    95    94    1
    89   125   127    1
    90   125   122    1
    91   123   122    1
    92    94    91    1
    93   102   100    1
    94   122   121    1
    95    90    91    1
    96   101   100    1
    97    91    92    1
    98   100    97    1
    99   116   115    2
   100   121   115   am
   101    96    92   am
   102    96    97    1
   103    92    93    2
   104   115   114    1
   105    97    98    1
   106   110   108   ar
   107   110   112   ar
   108   107   108    1
   109   107   104    1
   110   108   109   ar
   111   106   105    2
   112   112   111   ar
   113   109   111   ar
   114    98    99    2
   115   114   117    1
   116   114   113    1
   117   105   104    1
   118   104   103    1
   119   117   118    1
   120   118   119    2
   121   118   120   am
