@<TRIPOS>MOLECULE
tmp/2vr0F03.pdb
 189 179 0 0 0
SMALL
GASTEIGER

@<TRIPOS>ATOM
      1  N         25.6410  -22.0080   -5.9610 N.3    24  THR24      -0.1203
      2  CA        25.9740  -23.1410   -5.0900 C.3    24  THR24       0.1994
      3  C         26.8510  -22.7430   -3.9040 C.2    24  THR24       0.2617
      4  O         27.4340  -23.6100   -3.2580 O.2    24  THR24      -0.2717
      5  CB        26.6520  -24.3110   -5.8740 C.3    24  THR24       0.1784
      6  OG1       27.6750  -23.7940   -6.7380 O.3    24  THR24      -0.2211
      7  CG2       25.6250  -25.1010   -6.6960 C.3    24  THR24       0.0376
      8  N         26.9400  -21.4340   -3.6490 N.am   25  ASP25      -0.1973
      9  CA        27.6650  -20.8660   -2.5030 C.3    25  ASP25       0.1709
     10  C         26.7250  -20.2540   -1.4700 C.2    25  ASP25       0.2293
     11  O         27.1060  -20.0800   -0.3170 O.2    25  ASP25      -0.2864
     12  CB        28.6260  -19.7630   -2.9540 C.3    25  ASP25       0.1436
     13  CG        29.9610  -20.2930   -3.4520 C.2    25  ASP25       0.3671
     14  OD1       30.1810  -21.5240   -3.4830 O.co2  25  ASP25      -0.2456
     15  OD2       30.8070  -19.4540   -3.8210 O.co2  25  ASP25      -0.2456
     16  N         20.6940  -22.2770   -1.5040 N.3    29  PHE29      -0.1227
     17  CA        21.1210  -23.5900   -1.9670 C.3    29  PHE29       0.1736
     18  C         21.5080  -24.5070   -0.8080 C.2    29  PHE29       0.2595
     19  O         21.0860  -25.6560   -0.7690 O.2    29  PHE29      -0.2718
     20  CB        22.2630  -23.5110   -2.9880 C.3    29  PHE29       0.0547
     21  CG        23.0220  -24.8080   -3.1400 C.ar   29  PHE29      -0.0202
     22  CD1       22.5270  -25.8300   -3.9460 C.ar   29  PHE29      -0.0042
     23  CD2       24.2210  -25.0160   -2.4530 C.ar   29  PHE29      -0.0042
     24  CE1       23.2160  -27.0430   -4.0790 C.ar   29  PHE29      -0.0003
     25  CE2       24.9150  -26.2210   -2.5810 C.ar   29  PHE29      -0.0003
     26  CZ        24.4080  -27.2410   -3.3990 C.ar   29  PHE29      -0.0000
     27  N         22.3180  -24.0030    0.1210 N.am   30  CYS30      -0.1970
     28  CA        22.7830  -24.8110    1.2460 C.3    30  CYS30       0.1712
     29  C         21.6260  -25.3260    2.0810 C.2    30  CYS30       0.2296
     30  O         21.6590  -26.4520    2.5490 O.2    30  CYS30      -0.2864
     31  CB        23.7110  -24.0140    2.1550 C.3    30  CYS30       0.0983
     32  SG        25.2970  -23.5310    1.4790 S.3    30  CYS30      -0.0798
     33  N         18.6360  -26.1290    1.3080 N.3    32  SER32      -0.1202
     34  CA        17.6470  -26.9900    0.6800 C.3    32  SER32       0.2020
     35  C         17.6990  -28.3890    1.3050 C.2    32  SER32       0.2619
     36  O         16.9360  -29.2680    0.9150 O.2    32  SER32      -0.2717
     37  CB        17.8450  -27.0540   -0.8280 C.3    32  SER32       0.2103
     38  OG        18.9260  -27.9030   -1.1290 O.3    32  SER32      -0.2182
     39  N         18.6000  -28.5820    2.2690 N.am   33  CYS33      -0.1969
     40  CA        18.6090  -29.7680    3.1260 C.3    33  CYS33       0.1712
     41  C         18.1970  -29.3780    4.5240 C.2    33  CYS33       0.2296
     42  O         18.8880  -28.6000    5.1820 O.2    33  CYS33      -0.2864
     43  CB        19.9960  -30.3890    3.1860 C.3    33  CYS33       0.0983
     44  SG        20.5490  -31.0340    1.6240 S.3    33  CYS33      -0.0798
     45  N         18.5450  -30.5430    7.2360 N.3    35  ILE35      -0.1231
     46  CA        19.5570  -30.7690    8.2610 C.3    35  ILE35       0.1692
     47  C         20.4420  -29.5300    8.4630 C.2    35  ILE35       0.2591
     48  O         21.0830  -29.3820    9.5100 O.2    35  ILE35      -0.2718
     49  CB        20.3930  -32.0330    7.9540 C.3    35  ILE35       0.0266
     50  CG1       21.2430  -32.4390    9.1630 C.3    35  ILE35       0.0019
     51  CG2       21.2310  -31.8280    6.6930 C.3    35  ILE35       0.0020
     52  CD1       21.5140  -33.9400    9.2700 C.3    35  ILE35       0.0001
     53  N         20.4370  -28.6370    7.4670 N.am   36  MET36      -0.1979
     54  CA        21.2400  -27.3940    7.4880 C.3    36  MET36       0.1605
     55  C         20.4580  -26.1440    7.9550 C.2    36  MET36       0.2287
     56  O         20.9440  -25.0100    7.8620 O.2    36  MET36      -0.2864
     57  CB        21.8760  -27.1290    6.1080 C.3    36  MET36       0.0413
     58  CG        22.8910  -28.1820    5.6090 C.3    36  MET36       0.0598
     59  SD        24.5590  -28.1230    6.3260 S.3    36  MET36      -0.1393
     60  CE        24.4080  -29.2790    7.6830 C.3    36  MET36       0.0692
     61  N         22.0210  -24.0140   11.1110 N.3    39  VAL39      -0.1245
     62  CA        23.0950  -23.1450   10.6160 C.3    39  VAL39       0.1561
     63  C         22.5970  -22.0210    9.6820 C.2    39  VAL39       0.2260
     64  O         23.1480  -20.9180    9.6700 O.2    39  VAL39      -0.2867
     65  CB        24.2610  -23.9530    9.9700 C.3    39  VAL39       0.0252
     66  CG1       25.0140  -24.7600   11.0460 C.3    39  VAL39       0.0019
     67  CG2       23.7600  -24.8610    8.8680 C.3    39  VAL39       0.0019
     68  N         27.5890  -18.5810    2.5530 N.3    53  CYS53      -0.1221
     69  CA        28.1810  -19.6150    3.4040 C.3    53  CYS53       0.1808
     70  C         29.5830  -19.9350    2.9510 C.2    53  CYS53       0.2601
     71  O         30.4810  -20.0790    3.7700 O.2    53  CYS53      -0.2717
     72  CB        27.3820  -20.8960    3.3380 C.3    53  CYS53       0.0970
     73  SG        25.6720  -20.5990    3.2910 S.3    53  CYS53      -0.0800
     74  N         29.7650  -20.0630    1.6430 N.am   54  ASN54      -0.1974
     75  CA        31.0610  -20.4190    1.1090 C.3    54  ASN54       0.1688
     76  C         32.0630  -19.2790    1.1330 C.2    54  ASN54       0.2292
     77  O         33.2610  -19.5090    0.9370 O.2    54  ASN54      -0.2864
     78  CB        30.9300  -21.0240   -0.2670 C.3    54  ASN54       0.1181
     79  CG        30.7150  -22.4960   -0.2050 C.2    54  ASN54       0.2629
     80  OD1       31.0120  -23.1260    0.8020 O.2    54  ASN54      -0.2716
     81  ND2       30.1960  -23.0650   -1.2790 N.am   54  ASN54      -0.0877
     82  N         32.9530  -20.8770    4.1910 N.3    57  HIS57      -0.1241
     83  CA        33.1600  -22.3300    4.1600 C.3    57  HIS57       0.1621
     84  C         33.9180  -22.9310    2.9660 C.2    57  HIS57       0.2264
     85  O         34.1590  -24.1380    2.9460 O.2    57  HIS57      -0.2867
     86  CB        31.8390  -23.0510    4.4020 C.3    57  HIS57       0.0745
     87  CG        31.3840  -22.9660    5.8180 C.ar   57  HIS57       0.0817
     88  ND1       31.8400  -23.8290    6.7890 N.ar   57  HIS57      -0.2268
     89  CD2       30.5650  -22.0890    6.4450 C.ar   57  HIS57       0.1154
     90  CE1       31.3030  -23.5040    7.9490 C.ar   57  HIS57       0.1986
     91  NE2       30.5240  -22.4520    7.7700 N.ar   57  HIS57      -0.2212
     92  N         33.4860  -31.6160   -0.7310 N.3    72  ALA72      -0.1245
     93  CA        32.5310  -31.3910    0.3550 C.3    72  ALA72       0.1562
     94  C         31.1060  -31.6460   -0.1370 C.2    72  ALA72       0.2260
     95  O         30.2940  -32.2350    0.5850 O.2    72  ALA72      -0.2867
     96  CB        32.6630  -29.9930    0.9050 C.3    72  ALA72       0.0290
     97  N         30.5520  -35.3820   -0.5280 N.3    75  ARG75      -0.1231
     98  CA        30.5200  -35.9660    0.8160 C.3    75  ARG75       0.1694
     99  C         29.2420  -35.6260    1.5850 C.2    75  ARG75       0.2592
    100  O         28.7490  -36.4510    2.3550 O.2    75  ARG75      -0.2718
    101  CB        31.7690  -35.5660    1.6030 C.3    75  ARG75       0.0321
    102  CG        31.8580  -36.1120    3.0350 C.3    75  ARG75       0.0489
    103  CD        33.3100  -36.4710    3.4590 C.3    75  ARG75       0.2205
    104  NE        34.3650  -35.5950    2.9090 N.pl3  75  ARG75      -0.0865
    105  CZ        34.5900  -34.3290    3.2790 C.cat  75  ARG75       0.5346
    106  NH1       33.8210  -33.7490    4.1960 N.pl3  75  ARG75       0.1354
    107  NH2       35.5760  -33.6280    2.7180 N.pl3  75  ARG75       0.1354
    108  N         28.7080  -34.4240    1.3580 N.am   76  ASP76      -0.1960
    109  CA        27.4490  -34.0000    1.9820 C.3    76  ASP76       0.1840
    110  C         26.2030  -34.7070    1.4120 C.2    76  ASP76       0.2621
    111  O         25.2940  -35.0540    2.1700 O.2    76  ASP76      -0.2715
    112  CB        27.2990  -32.4730    1.9430 C.3    76  ASP76       0.1450
    113  CG        28.0740  -31.7810    3.0590 C.2    76  ASP76       0.3671
    114  OD1       28.3980  -32.4570    4.0630 O.co2  76  ASP76      -0.2456
    115  OD2       28.3470  -30.5610    2.9440 O.co2  76  ASP76      -0.2456
    116  N         26.1720  -34.9230    0.0920 N.am   77  VAL77      -0.1977
    117  CA        25.0900  -35.6720   -0.5710 C.3    77  VAL77       0.1596
    118  C         25.0570  -37.0980   -0.0310 C.2    77  VAL77       0.2287
    119  O         23.9900  -37.6430    0.2640 O.2    77  VAL77      -0.2864
    120  CB        25.2620  -35.7110   -2.1260 C.3    77  VAL77       0.0276
    121  CG1       24.2350  -36.6360   -2.7830 C.3    77  VAL77       0.0022
    122  CG2       25.1630  -34.3130   -2.7150 C.3    77  VAL77       0.0022
    123  N         26.2680  -38.2370    2.8800 N.3    79  MET79      -0.1230
    124  CA        25.8310  -38.2320    4.2780 C.3    79  MET79       0.1702
    125  C         24.3220  -38.0530    4.4410 C.2    79  MET79       0.2592
    126  O         23.7230  -38.5820    5.3760 O.2    79  MET79      -0.2718
    127  CB        26.5650  -37.1430    5.0640 C.3    79  MET79       0.0401
    128  CG        27.9750  -37.5210    5.4920 C.3    79  MET79       0.0596
    129  SD        28.0600  -39.1650    6.2450 S.3    79  MET79      -0.1393
    130  CE        27.2130  -38.9300    7.8070 C.3    79  MET79       0.0692
    131  N         23.7200  -37.3040    3.5230 N.am   80  ASN80      -0.1974
    132  CA        22.2940  -37.0060    3.5730 C.3    80  ASN80       0.1688
    133  C         21.4550  -38.1230    2.9740 C.2    80  ASN80       0.2292
    134  O         20.2430  -38.1470    3.1530 O.2    80  ASN80      -0.2864
    135  CB        21.9970  -35.6810    2.8530 C.3    80  ASN80       0.1181
    136  CG        20.7150  -35.0090    3.3440 C.2    80  ASN80       0.2629
    137  OD1       20.6070  -34.6090    4.5100 O.2    80  ASN80      -0.2716
    138  ND2       19.7490  -34.8650    2.4510 N.am   80  ASN80      -0.0877
    139  N         24.0160  -39.6520    9.8130 N.3    85  PRO85      -0.2102
    140  CA        24.5980  -38.5630   10.6140 C.3    85  PRO85       0.1504
    141  C         24.2130  -38.6370   12.0860 C.2    85  PRO85       0.2576
    142  O         23.1330  -39.1280   12.4250 O.2    85  PRO85      -0.2718
    143  CB        23.9970  -37.2940   10.0000 C.3    85  PRO85       0.0282
    144  CG        23.4200  -37.7150    8.7000 C.3    85  PRO85       0.0208
    145  CD        23.0070  -39.1420    8.8720 C.3    85  PRO85       0.0893
    146  N         25.1060  -38.1420   12.9450 N.am   86  GLY86      -0.1957
    147  CA        24.9410  -38.2390   14.3970 C.3    86  GLY86       0.1869
    148  C         24.0530  -37.1600   14.9730 C.2    86  GLY86       0.2309
    149  O         23.4580  -36.3640   14.2390 O.2    86  GLY86      -0.2863
    150  N         25.3850  -34.9060   16.8220 N.3    88  LEU88      -0.1231
    151  CA        26.2760  -33.7660   16.7480 C.3    88  LEU88       0.1693
    152  C         26.8570  -33.5730   15.3540 C.2    88  LEU88       0.2592
    153  O         27.5010  -34.4690   14.8090 O.2    88  LEU88      -0.2718
    154  CB        27.4080  -33.9220   17.7540 C.3    88  LEU88       0.0284
    155  CG        27.1640  -33.3840   19.1530 C.3    88  LEU88       0.0019
    156  CD1       28.3510  -33.7340   20.0160 C.3    88  LEU88       0.0001
    157  CD2       26.9420  -31.8770   19.1180 C.3    88  LEU88       0.0001
    158  N         26.6200  -32.3980   14.7840 N.am   89  ILE89      -0.1966
    159  CA        27.2600  -32.0170   13.5410 C.3    89  ILE89       0.1727
    160  C         28.3820  -31.0610   13.8940 C.2    89  ILE89       0.2616
    161  O         28.1410  -29.9450   14.3740 O.2    89  ILE89      -0.2715
    162  CB        26.2760  -31.3730   12.5520 C.3    89  ILE89       0.0290
    163  CG1       25.2950  -32.4310   12.0420 C.3    89  ILE89       0.0022
    164  CG2       27.0210  -30.7350   11.3750 C.3    89  ILE89       0.0023
    165  CD1       23.8930  -31.9060   11.8220 C.3    89  ILE89       0.0001
    166  N         29.6110  -31.5200   13.6800 N.am   90  LEU90      -0.1963
    167  CA        30.7820  -30.7160   13.9740 C.3    90  LEU90       0.1728
    168  C         31.6610  -30.5290   12.7590 C.2    90  LEU90       0.2616
    169  O         31.8340  -31.4420   11.9510 O.2    90  LEU90      -0.2715
    170  CB        31.5910  -31.3280   15.1170 C.3    90  LEU90       0.0311
    171  CG        30.9170  -31.4370   16.4960 C.3    90  LEU90       0.0022
    172  CD1       31.8960  -32.0310   17.5300 C.3    90  LEU90       0.0001
    173  CD2       30.3160  -30.1070   16.9910 C.3    90  LEU90       0.0001
    174  N         32.2070  -29.3250   12.6400 N.am   91  ALA91      -0.1963
    175  CA        33.1790  -29.0140   11.6100 C.3    91  ALA91       0.1728
    176  C         34.4090  -29.8940   11.8040 C.2    91  ALA91       0.2616
    177  O         34.9250  -29.9980   12.9270 O.2    91  ALA91      -0.2715
    178  CB        33.5620  -27.5570   11.6940 C.3    91  ALA91       0.0334
    179  N         34.8470  -30.5510   10.7290 N.am   92  GLY92      -0.1955
    180  CA        36.0810  -31.3320   10.7430 C.3    92  GLY92       0.1869
    181  C         37.2840  -30.4060   10.6840 C.2    92  GLY92       0.2309
    182  O         37.1460  -29.2160   10.3480 O.2    92  GLY92      -0.2863
    183  N         37.7090  -28.0650    7.5460 N.3    95  THR95      -0.1218
    184  CA        36.8510  -26.8800    7.4430 C.3    95  THR95       0.1862
    185  C         37.1160  -25.7980    8.5230 C.2    95  THR95       0.2287
    186  O         36.9730  -24.6050    8.2410 O.2    95  THR95      -0.2866
    187  CB        35.3370  -27.2110    7.2130 C.3    95  THR95       0.1770
    188  OG1       34.6760  -27.4300    8.4560 O.3    95  THR95      -0.2211
    189  CG2       35.1770  -28.4270    6.3240 C.3    95  THR95       0.0375
@<TRIPOS>BOND
     1     6     5    1
     2     7     5    1
     3     1     2    1
     4     5     2    1
     5     2     3    1
     6    24    22   ar
     7    24    26   ar
     8    22    21   ar
     9     3     8   am
    10     3     4    2
    11    15    13   ar
    12     8     9    1
    13    14    13   ar
    14    13    12    1
    15    26    25   ar
    16    21    20    1
    17    21    23   ar
    18    20    17    1
    19    12     9    1
    20   121   120    1
    21   122   120    1
    22    25    23   ar
    23     9    10    1
    24   120   117    1
    25    17    16    1
    26    17    18    1
    27    10    11    2
    28    81    79   am
    29    38    37    1
    30    37    34    1
    31    18    19    2
    32    18    27   am
    33    92    93    1
    34   117   118    1
    35   117   116    1
    36    97    98    1
    37    78    79    1
    38    78    75    1
    39    79    80    2
    40    94    93    1
    41    94    95    2
    42   118   119    2
    43   116   110   am
    44    27    28    1
    45    93    96    1
    46    34    35    1
    47    34    33    1
    48    98    99    1
    49    98   101    1
    50    36    35    2
    51    77    76    2
    52    75    76    1
    53    75    74    1
    54    28    29    1
    55    28    31    1
    56    35    39   am
    57   108    99   am
    58   108   109    1
    59   110   109    1
    60   110   111    2
    61    32    31    1
    62    99   100    2
    63   101   102    1
    64    44    43    1
    65    74    70   am
    66   112   109    1
    67   112   113    1
    68    29    30    2
    69    39    40    1
    70   138   136   am
    71    68    69    1
    72   107   105    1
    73   135   136    1
    74   135   132    1
    75   123   124    1
    76   104   105    2
    77   104   103    1
    78   115   113   ar
    79    85    84    2
    80    70    69    1
    81    70    71    2
    82    84    83    1
    83   133   134    2
    84   133   132    1
    85   102   103    1
    86   113   114   ar
    87    40    43    1
    88    40    41    1
    89   105   106    1
    90    73    72    1
    91    72    69    1
    92   136   137    2
    93   131   132    1
    94   131   125   am
    95    83    82    1
    96    83    86    1
    97   124   125    1
    98   124   127    1
    99    86    87    1
   100   125   126    2
   101    41    42    2
   102   127   128    1
   103   128   129    1
   104    58    57    1
   105    58    59    1
   106    87    89   ar
   107    87    88   ar
   108    57    54    1
   109   129   130    1
   110   189   187    1
   111    59    60    1
   112    89    91   ar
   113    51    49    1
   114    88    90   ar
   115   187   184    1
   116   187   188    1
   117    45    46    1
   118   184   183    1
   119   184   185    1
   120    53    54    1
   121    53    47   am
   122    54    55    1
   123    91    90   ar
   124    56    55    2
   125    49    46    1
   126    49    50    1
   127   186   185    2
   128    46    47    1
   129    47    48    2
   130   144   145    1
   131   144   143    1
   132    67    65    1
   133   145   139    1
   134    50    52    1
   135    64    63    2
   136    63    62    1
   137   139   140    1
   138    65    62    1
   139    65    66    1
   140   143   140    1
   141   182   181    2
   142   140   141    1
   143    62    61    1
   144   181   180    1
   145   179   180    1
   146   179   176   am
   147   164   162    1
   148   175   178    1
   149   175   176    1
   150   175   174    1
   151   176   177    2
   152   165   163    1
   153   169   168    2
   154   163   162    1
   155   141   142    2
   156   141   146   am
   157   162   159    1
   158   174   168   am
   159   168   167    1
   160   146   147    1
   161   159   160    1
   162   159   158    1
   163   166   160   am
   164   166   167    1
   165   160   161    2
   166   167   170    1
   167   149   148    2
   168   147   148    1
   169   158   152   am
   170   153   152    2
   171   170   171    1
   172   152   151    1
   173   171   173    1
   174   171   172    1
   175   151   150    1
   176   151   154    1
   177   154   155    1
   178   157   155    1
   179   155   156    1
