@<TRIPOS>MOLECULE
tmp/2vr0F07.pdb
 107 100 0 0 0
SMALL
GASTEIGER

@<TRIPOS>ATOM
      1  N         28.2390  -21.7700  -10.1360 N.3    21  MET21      -0.1245
      2  CA        29.2970  -21.7170   -9.1370 C.3    21  MET21       0.1570
      3  C         28.9060  -20.8320   -7.9480 C.2    21  MET21       0.2261
      4  O         29.0520  -21.2210   -6.7850 O.2    21  MET21      -0.2867
      5  CB        30.5840  -21.1980   -9.7920 C.3    21  MET21       0.0387
      6  CG        31.8900  -21.5580   -9.0780 C.3    21  MET21       0.0595
      7  SD        32.1730  -23.3430   -8.8550 S.3    21  MET21      -0.1393
      8  CE        31.5910  -24.0760  -10.4150 C.3    21  MET21       0.0692
      9  N         25.6410  -22.0080   -5.9610 N.3    24  THR24      -0.1218
     10  CA        25.9740  -23.1410   -5.0900 C.3    24  THR24       0.1862
     11  C         26.8510  -22.7430   -3.9040 C.2    24  THR24       0.2287
     12  O         27.4340  -23.6100   -3.2580 O.2    24  THR24      -0.2866
     13  CB        26.6520  -24.3110   -5.8740 C.3    24  THR24       0.1770
     14  OG1       27.6750  -23.7940   -6.7380 O.3    24  THR24      -0.2211
     15  CG2       25.6250  -25.1010   -6.6960 C.3    24  THR24       0.0375
     16  N         20.6940  -22.2770   -1.5040 N.3    29  PHE29      -0.1227
     17  CA        21.1210  -23.5900   -1.9670 C.3    29  PHE29       0.1736
     18  C         21.5080  -24.5070   -0.8080 C.2    29  PHE29       0.2595
     19  O         21.0860  -25.6560   -0.7690 O.2    29  PHE29      -0.2718
     20  CB        22.2630  -23.5110   -2.9880 C.3    29  PHE29       0.0547
     21  CG        23.0220  -24.8080   -3.1400 C.ar   29  PHE29      -0.0202
     22  CD1       22.5270  -25.8300   -3.9460 C.ar   29  PHE29      -0.0042
     23  CD2       24.2210  -25.0160   -2.4530 C.ar   29  PHE29      -0.0042
     24  CE1       23.2160  -27.0430   -4.0790 C.ar   29  PHE29      -0.0003
     25  CE2       24.9150  -26.2210   -2.5810 C.ar   29  PHE29      -0.0003
     26  CZ        24.4080  -27.2410   -3.3990 C.ar   29  PHE29      -0.0000
     27  N         22.3180  -24.0030    0.1210 N.am   30  CYS30      -0.1970
     28  CA        22.7830  -24.8110    1.2460 C.3    30  CYS30       0.1712
     29  C         21.6260  -25.3260    2.0810 C.2    30  CYS30       0.2296
     30  O         21.6590  -26.4520    2.5490 O.2    30  CYS30      -0.2864
     31  CB        23.7110  -24.0140    2.1550 C.3    30  CYS30       0.0983
     32  SG        25.2970  -23.5310    1.4790 S.3    30  CYS30      -0.0798
     33  N         29.7650  -20.0630    1.6430 N.3    54  ASN54      -0.1240
     34  CA        31.0610  -20.4190    1.1090 C.3    54  ASN54       0.1653
     35  C         32.0630  -19.2790    1.1330 C.2    54  ASN54       0.2266
     36  O         33.2610  -19.5090    0.9370 O.2    54  ASN54      -0.2867
     37  CB        30.9300  -21.0240   -0.2670 C.3    54  ASN54       0.1155
     38  CG        30.7150  -22.4960   -0.2050 C.2    54  ASN54       0.2627
     39  OD1       31.0120  -23.1260    0.8020 O.2    54  ASN54      -0.2716
     40  ND2       30.1960  -23.0650   -1.2790 N.am   54  ASN54      -0.0877
     41  N         32.9530  -20.8770    4.1910 N.3    57  HIS57      -0.1241
     42  CA        33.1600  -22.3300    4.1600 C.3    57  HIS57       0.1621
     43  C         33.9180  -22.9310    2.9660 C.2    57  HIS57       0.2264
     44  O         34.1590  -24.1380    2.9460 O.2    57  HIS57      -0.2867
     45  CB        31.8390  -23.0510    4.4020 C.3    57  HIS57       0.0745
     46  CG        31.3840  -22.9660    5.8180 C.ar   57  HIS57       0.0817
     47  ND1       31.8400  -23.8290    6.7890 N.ar   57  HIS57      -0.2268
     48  CD2       30.5650  -22.0890    6.4450 C.ar   57  HIS57       0.1154
     49  CE1       31.3030  -23.5040    7.9490 C.ar   57  HIS57       0.1986
     50  NE2       30.5240  -22.4520    7.7700 N.ar   57  HIS57      -0.2212
     51  N         37.1760  -24.8110   -6.5530 N.3    66  LEU66      -0.1245
     52  CA        36.4990  -25.7920   -7.3950 C.3    66  LEU66       0.1561
     53  C         36.5370  -27.2200   -6.8420 C.2    66  LEU66       0.2260
     54  O         35.4750  -27.8030   -6.6440 O.2    66  LEU66      -0.2867
     55  CB        37.0550  -25.7520   -8.8090 C.3    66  LEU66       0.0270
     56  CG        36.4000  -24.7930   -9.7910 C.3    66  LEU66       0.0019
     57  CD1       37.3960  -24.4520  -10.9060 C.3    66  LEU66       0.0001
     58  CD2       35.1440  -25.4420  -10.3590 C.3    66  LEU66       0.0001
     59  N         37.4890  -28.2330   -3.7060 N.3    68  PHE68      -0.1227
     60  CA        36.9190  -28.2460   -2.3530 C.3    68  PHE68       0.1736
     61  C         35.4000  -28.3380   -2.3760 C.2    68  PHE68       0.2595
     62  O         34.8100  -29.0990   -1.6050 O.2    68  PHE68      -0.2718
     63  CB        37.3290  -27.0200   -1.5310 C.3    68  PHE68       0.0547
     64  CG        36.8130  -27.0560   -0.1130 C.ar   68  PHE68      -0.0202
     65  CD1       35.5450  -26.5720    0.1980 C.ar   68  PHE68      -0.0042
     66  CD2       37.5770  -27.6150    0.9070 C.ar   68  PHE68      -0.0042
     67  CE1       35.0600  -26.6390    1.5010 C.ar   68  PHE68      -0.0003
     68  CE2       37.0930  -27.6720    2.2160 C.ar   68  PHE68      -0.0003
     69  CZ        35.8360  -27.1860    2.5100 C.ar   68  PHE68      -0.0000
     70  N         34.7820  -27.5460   -3.2530 N.am   69  LYS69      -0.1966
     71  CA        33.3280  -27.5360   -3.4350 C.3    69  LYS69       0.1728
     72  C         32.7670  -28.8970   -3.8760 C.2    69  LYS69       0.2616
     73  O         31.7010  -29.3200   -3.4080 O.2    69  LYS69      -0.2715
     74  CB        32.9170  -26.4480   -4.4350 C.3    69  LYS69       0.0311
     75  CG        32.6670  -25.0710   -3.8340 C.3    69  LYS69       0.0038
     76  CD        32.2790  -24.0580   -4.9080 C.3    69  LYS69       0.0206
     77  CE        30.9080  -24.3250   -5.5070 C.3    69  LYS69       0.1093
     78  NZ        29.8290  -23.6430   -4.7570 N.3    69  LYS69      -0.1314
     79  N         33.4850  -29.5720   -4.7690 N.am   70  ALA70      -0.1977
     80  CA        33.0310  -30.8560   -5.3150 C.3    70  ALA70       0.1597
     81  C         33.2520  -31.9960   -4.3300 C.2    70  ALA70       0.2287
     82  O         32.4940  -32.9700   -4.3310 O.2    70  ALA70      -0.2864
     83  CB        33.7090  -31.1630   -6.6580 C.3    70  ALA70       0.0319
     84  N         33.4860  -31.6160   -0.7310 N.3    72  ALA72      -0.1231
     85  CA        32.5310  -31.3910    0.3550 C.3    72  ALA72       0.1694
     86  C         31.1060  -31.6460   -0.1370 C.2    72  ALA72       0.2592
     87  O         30.2940  -32.2350    0.5850 O.2    72  ALA72      -0.2718
     88  CB        32.6630  -29.9930    0.9050 C.3    72  ALA72       0.0304
     89  N         30.8280  -31.2150   -1.3720 N.am   73  GLY73      -0.1957
     90  CA        29.5270  -31.3960   -2.0050 C.3    73  GLY73       0.1869
     91  C         29.1760  -32.8590   -2.0620 C.2    73  GLY73       0.2309
     92  O         28.1830  -33.2800   -1.4830 O.2    73  GLY73      -0.2863
     93  N         28.7080  -34.4240    1.3580 N.3    76  ASP76      -0.1239
     94  CA        27.4490  -34.0000    1.9820 C.3    76  ASP76       0.1674
     95  C         26.2030  -34.7070    1.4120 C.2    76  ASP76       0.2266
     96  O         25.2940  -35.0540    2.1700 O.2    76  ASP76      -0.2867
     97  CB        27.2990  -32.4730    1.9430 C.3    76  ASP76       0.1410
     98  CG        28.0740  -31.7810    3.0590 C.2    76  ASP76       0.3668
     99  OD1       28.3980  -32.4570    4.0630 O.co2  76  ASP76      -0.2456
    100  OD2       28.3470  -30.5610    2.9440 O.co2  76  ASP76      -0.2456
    101  N         37.7090  -28.0650    7.5460 N.3    95  THR95      -0.1218
    102  CA        36.8510  -26.8800    7.4430 C.3    95  THR95       0.1862
    103  C         37.1160  -25.7980    8.5230 C.2    95  THR95       0.2287
    104  O         36.9730  -24.6050    8.2410 O.2    95  THR95      -0.2866
    105  CB        35.3370  -27.2110    7.2130 C.3    95  THR95       0.1770
    106  OG1       34.6760  -27.4300    8.4560 O.3    95  THR95      -0.2211
    107  CG2       35.1770  -28.4270    6.3240 C.3    95  THR95       0.0375
@<TRIPOS>BOND
     1    57    56    1
     2     8     7    1
     3    58    56    1
     4     1     2    1
     5     5     2    1
     6     5     6    1
     7    56    55    1
     8     2     3    1
     9     6     7    1
    10    55    52    1
    11     3     4    2
    12    52    53    1
    13    52    51    1
    14    53    54    2
    15    14    13    1
    16    15    13    1
    17    83    80    1
    18     9    10    1
    19    13    10    1
    20    77    76    1
    21    77    78    1
    22    80    79    1
    23    80    81    1
    24    10    11    1
    25    76    75    1
    26    79    72   am
    27    74    75    1
    28    74    71    1
    29    82    81    2
    30    24    22   ar
    31    24    26   ar
    32    22    21   ar
    33    11    12    2
    34    72    71    1
    35    72    73    2
    36    59    60    1
    37    71    70    1
    38    26    25   ar
    39    70    61   am
    40    21    20    1
    41    21    23   ar
    42    20    17    1
    43    25    23   ar
    44    61    60    1
    45    61    62    2
    46    60    63    1
    47    91    90    1
    48    91    92    2
    49    90    89    1
    50    17    16    1
    51    17    18    1
    52    63    64    1
    53    89    86   am
    54    40    38   am
    55    18    19    2
    56    18    27   am
    57    84    85    1
    58    37    38    1
    59    37    34    1
    60    38    39    2
    61    86    85    1
    62    86    87    2
    63    64    65   ar
    64    64    66   ar
    65    27    28    1
    66    65    67   ar
    67    85    88    1
    68    66    68   ar
    69    36    35    2
    70    34    35    1
    71    34    33    1
    72    28    29    1
    73    28    31    1
    74    93    94    1
    75    95    94    1
    76    95    96    2
    77    32    31    1
    78    67    69   ar
    79    97    94    1
    80    97    98    1
    81    29    30    2
    82    68    69   ar
    83   100    98   ar
    84    44    43    2
    85    43    42    1
    86    98    99   ar
    87    42    41    1
    88    42    45    1
    89    45    46    1
    90    46    48   ar
    91    46    47   ar
    92   107   105    1
    93    48    50   ar
    94    47    49   ar
    95   105   102    1
    96   105   106    1
    97   102   101    1
    98   102   103    1
    99    50    49   ar
   100   104   103    2
