@<TRIPOS>MOLECULE
tmp/2vr0F04.pdb
 205 194 0 0 0
SMALL
GASTEIGER

@<TRIPOS>ATOM
      1  N         23.1590  -19.1460    0.8810 N.3    27  ARG27      -0.1245
      2  CA        22.2180  -19.7070    1.8570 C.3    27  ARG27       0.1563
      3  C         20.9840  -20.4710    1.3140 C.2    27  ARG27       0.2260
      4  O         20.5800  -21.4760    1.9200 O.2    27  ARG27      -0.2867
      5  CB        21.7440  -18.6180    2.8030 C.3    27  ARG27       0.0307
      6  CG        21.1030  -19.1570    4.0670 C.3    27  ARG27       0.0489
      7  CD        20.1500  -18.1370    4.6290 C.3    27  ARG27       0.2205
      8  NE        20.8290  -16.8960    4.9630 N.pl3  27  ARG27      -0.0865
      9  CZ        20.3310  -15.6840    4.7690 C.cat  27  ARG27       0.5346
     10  NH1       19.1350  -15.5320    4.2230 N.pl3  27  ARG27       0.1354
     11  NH2       21.0370  -14.6230    5.1190 N.pl3  27  ARG27       0.1354
     12  N         22.3180  -24.0030    0.1210 N.3    30  CYS30      -0.1221
     13  CA        22.7830  -24.8110    1.2460 C.3    30  CYS30       0.1808
     14  C         21.6260  -25.3260    2.0810 C.2    30  CYS30       0.2601
     15  O         21.6590  -26.4520    2.5490 O.2    30  CYS30      -0.2717
     16  CB        23.7110  -24.0140    2.1550 C.3    30  CYS30       0.0970
     17  SG        25.2970  -23.5310    1.4790 S.3    30  CYS30      -0.0800
     18  N         20.6060  -24.5020    2.2720 N.am   31  THR31      -0.1953
     19  CA        19.5300  -24.8610    3.1860 C.3    31  THR31       0.1897
     20  C         18.4010  -25.6300    2.5120 C.2    31  THR31       0.2313
     21  O         17.3270  -25.7850    3.0750 O.2    31  THR31      -0.2863
     22  CB        18.9540  -23.6290    3.9070 C.3    31  THR31       0.1794
     23  OG1       18.5060  -22.6730    2.9330 O.3    31  THR31      -0.2208
     24  CG2       20.0070  -23.0000    4.8400 C.3    31  THR31       0.0378
     25  N         20.4370  -28.6370    7.4670 N.3    36  MET36      -0.1245
     26  CA        21.2400  -27.3940    7.4880 C.3    36  MET36       0.1570
     27  C         20.4580  -26.1440    7.9550 C.2    36  MET36       0.2261
     28  O         20.9440  -25.0100    7.8620 O.2    36  MET36      -0.2867
     29  CB        21.8760  -27.1290    6.1080 C.3    36  MET36       0.0387
     30  CG        22.8910  -28.1820    5.6090 C.3    36  MET36       0.0595
     31  SD        24.5590  -28.1230    6.3260 S.3    36  MET36      -0.1393
     32  CE        24.4080  -29.2790    7.6830 C.3    36  MET36       0.0692
     33  N         22.0210  -24.0140   11.1110 N.3    39  VAL39      -0.1231
     34  CA        23.0950  -23.1450   10.6160 C.3    39  VAL39       0.1692
     35  C         22.5970  -22.0210    9.6820 C.2    39  VAL39       0.2592
     36  O         23.1480  -20.9180    9.6700 O.2    39  VAL39      -0.2718
     37  CB        24.2610  -23.9530    9.9700 C.3    39  VAL39       0.0266
     38  CG1       25.0140  -24.7600   11.0460 C.3    39  VAL39       0.0020
     39  CG2       23.7600  -24.8610    8.8680 C.3    39  VAL39       0.0020
     40  N         21.5490  -22.3110    8.9160 N.am   40  GLY40      -0.1957
     41  CA        20.9370  -21.3190    8.0460 C.3    40  GLY40       0.1869
     42  C         20.3510  -20.1850    8.8540 C.2    40  GLY40       0.2309
     43  O         20.6200  -19.0200    8.5810 O.2    40  GLY40      -0.2863
     44  N         22.7420  -18.0200   10.7640 N.3    43  HIS43      -0.1241
     45  CA        23.5110  -17.2320    9.8150 C.3    43  HIS43       0.1621
     46  C         22.7270  -15.9870    9.4430 C.2    43  HIS43       0.2264
     47  O         23.2380  -14.8690    9.5220 O.2    43  HIS43      -0.2867
     48  CB        23.8250  -18.0800    8.5920 C.3    43  HIS43       0.0745
     49  CG        24.3350  -17.3080    7.4090 C.ar   43  HIS43       0.0817
     50  ND1       25.5810  -16.7210    7.3760 N.ar   43  HIS43      -0.2268
     51  CD2       23.7860  -17.0820    6.1910 C.ar   43  HIS43       0.1154
     52  CE1       25.7670  -16.1460    6.2020 C.ar   43  HIS43       0.1986
     53  NE2       24.6930  -16.3510    5.4640 N.ar   43  HIS43      -0.2212
     54  N         26.8260  -11.6710    9.8520 N.3    48  HIS48      -0.1241
     55  CA        27.3910  -12.1630    8.6000 C.3    48  HIS48       0.1621
     56  C         26.3050  -12.6380    7.6260 C.2    48  HIS48       0.2264
     57  O         26.5940  -13.3130    6.6210 O.2    48  HIS48      -0.2867
     58  CB        28.4310  -13.2680    8.8610 C.3    48  HIS48       0.0745
     59  CG        29.7270  -12.7730    9.4380 C.ar   48  HIS48       0.0817
     60  ND1       29.9990  -12.7990   10.7890 N.ar   48  HIS48      -0.2268
     61  CD2       30.8310  -12.2520    8.8490 C.ar   48  HIS48       0.1154
     62  CE1       31.2080  -12.3120   11.0080 C.ar   48  HIS48       0.1986
     63  NE2       31.7330  -11.9670    9.8480 N.ar   48  HIS48      -0.2212
     64  N         26.6200  -12.1550    3.6480 N.3    51  ILE51      -0.1231
     65  CA        27.6500  -12.8460    2.8720 C.3    51  ILE51       0.1692
     66  C         27.2390  -14.3160    2.7310 C.2    51  ILE51       0.2593
     67  O         26.3930  -14.7980    3.4810 O.2    51  ILE51      -0.2718
     68  CB        29.0710  -12.6940    3.4830 C.3    51  ILE51       0.0266
     69  CG1       29.1560  -13.3360    4.8710 C.3    51  ILE51       0.0019
     70  CG2       29.4700  -11.2280    3.5440 C.3    51  ILE51       0.0020
     71  CD1       30.5750  -13.6270    5.3400 C.3    51  ILE51       0.0001
     72  N         27.8120  -15.0170    1.7640 N.am   52  SER52      -0.1938
     73  CA        27.4200  -16.3960    1.4990 C.3    52  SER52       0.2055
     74  C         28.0910  -17.3460    2.4770 C.2    52  SER52       0.2643
     75  O         29.0470  -16.9620    3.1490 O.2    52  SER52      -0.2714
     76  CB        27.7650  -16.7910    0.0580 C.3    52  SER52       0.2130
     77  OG        29.1630  -16.8990   -0.1290 O.3    52  SER52      -0.2179
     78  N         27.5890  -18.5810    2.5530 N.am   53  CYS53      -0.1967
     79  CA        28.1810  -19.6150    3.4040 C.3    53  CYS53       0.1712
     80  C         29.5830  -19.9350    2.9510 C.2    53  CYS53       0.2296
     81  O         30.4810  -20.0790    3.7700 O.2    53  CYS53      -0.2864
     82  CB        27.3820  -20.8960    3.3380 C.3    53  CYS53       0.0983
     83  SG        25.6720  -20.5990    3.2910 S.3    53  CYS53      -0.0798
     84  N         32.6440  -18.0840    3.8650 N.3    56  CYS56      -0.1221
     85  CA        33.3940  -18.6120    4.9860 C.3    56  CYS56       0.1808
     86  C         33.8250  -20.0680    4.7830 C.2    56  CYS56       0.2601
     87  O         34.9430  -20.4470    5.1350 O.2    56  CYS56      -0.2717
     88  CB        32.6030  -18.4740    6.2790 C.3    56  CYS56       0.0970
     89  SG        32.6900  -16.8430    6.9610 S.3    56  CYS56      -0.0800
     90  N         32.9530  -20.8770    4.1910 N.am   57  HIS57      -0.1975
     91  CA        33.1600  -22.3300    4.1600 C.3    57  HIS57       0.1656
     92  C         33.9180  -22.9310    2.9660 C.2    57  HIS57       0.2291
     93  O         34.1590  -24.1380    2.9460 O.2    57  HIS57      -0.2864
     94  CB        31.8390  -23.0510    4.4020 C.3    57  HIS57       0.0771
     95  CG        31.3840  -22.9660    5.8180 C.ar   57  HIS57       0.0820
     96  ND1       31.8400  -23.8290    6.7890 N.ar   57  HIS57      -0.2267
     97  CD2       30.5650  -22.0890    6.4450 C.ar   57  HIS57       0.1154
     98  CE1       31.3030  -23.5040    7.9490 C.ar   57  HIS57       0.1986
     99  NE2       30.5240  -22.4520    7.7700 N.ar   57  HIS57      -0.2212
    100  N         26.6200  -32.3980   14.7840 N.3    89  ILE89      -0.1231
    101  CA        27.2600  -32.0170   13.5410 C.3    89  ILE89       0.1692
    102  C         28.3820  -31.0610   13.8940 C.2    89  ILE89       0.2592
    103  O         28.1410  -29.9450   14.3740 O.2    89  ILE89      -0.2718
    104  CB        26.2760  -31.3730   12.5520 C.3    89  ILE89       0.0266
    105  CG1       25.2950  -32.4310   12.0420 C.3    89  ILE89       0.0019
    106  CG2       27.0210  -30.7350   11.3750 C.3    89  ILE89       0.0020
    107  CD1       23.8930  -31.9060   11.8220 C.3    89  ILE89       0.0001
    108  N         29.6110  -31.5200   13.6800 N.am   90  LEU90      -0.1966
    109  CA        30.7820  -30.7160   13.9740 C.3    90  LEU90       0.1728
    110  C         31.6610  -30.5290   12.7590 C.2    90  LEU90       0.2616
    111  O         31.8340  -31.4420   11.9510 O.2    90  LEU90      -0.2715
    112  CB        31.5910  -31.3280   15.1170 C.3    90  LEU90       0.0311
    113  CG        30.9170  -31.4370   16.4960 C.3    90  LEU90       0.0022
    114  CD1       31.8960  -32.0310   17.5300 C.3    90  LEU90       0.0001
    115  CD2       30.3160  -30.1070   16.9910 C.3    90  LEU90       0.0001
    116  N         32.2070  -29.3250   12.6400 N.am   91  ALA91      -0.1977
    117  CA        33.1790  -29.0140   11.6100 C.3    91  ALA91       0.1597
    118  C         34.4090  -29.8940   11.8040 C.2    91  ALA91       0.2287
    119  O         34.9250  -29.9980   12.9270 O.2    91  ALA91      -0.2864
    120  CB        33.5620  -27.5570   11.6940 C.3    91  ALA91       0.0319
    121  N         37.7090  -28.0650    7.5460 N.3    95  THR95      -0.1203
    122  CA        36.8510  -26.8800    7.4430 C.3    95  THR95       0.1994
    123  C         37.1160  -25.7980    8.5230 C.2    95  THR95       0.2617
    124  O         36.9730  -24.6050    8.2410 O.2    95  THR95      -0.2717
    125  CB        35.3370  -27.2110    7.2130 C.3    95  THR95       0.1784
    126  OG1       34.6760  -27.4300    8.4560 O.3    95  THR95      -0.2211
    127  CG2       35.1770  -28.4270    6.3240 C.3    95  THR95       0.0376
    128  N         37.5460  -26.2040    9.7240 N.am   96  LYS96      -0.1979
    129  CA        37.9780  -25.2410   10.7550 C.3    96  LYS96       0.1596
    130  C         39.0740  -24.3590   10.1670 C.2    96  LYS96       0.2287
    131  O         39.0990  -23.1490   10.3800 O.2    96  LYS96      -0.2864
    132  CB        38.4790  -25.9510   12.0280 C.3    96  LYS96       0.0298
    133  CG        37.4210  -26.8050   12.7520 C.3    96  LYS96       0.0038
    134  CD        38.0060  -27.9060   13.6590 C.3    96  LYS96       0.0206
    135  CE        38.1670  -27.4610   15.1020 C.3    96  LYS96       0.1093
    136  NZ        36.8570  -27.2040   15.7490 N.3    96  LYS96      -0.1314
    137  N         37.8980  -21.9390    7.1490 N.3    99  VAL99      -0.1245
    138  CA        37.1340  -20.8650    7.7740 C.3    99  VAL99       0.1561
    139  C         38.0610  -19.8380    8.4210 C.2    99  VAL99       0.2260
    140  O         37.9840  -18.6420    8.1080 O.2    99  VAL99      -0.2867
    141  CB        36.1030  -21.3940    8.8080 C.3    99  VAL99       0.0252
    142  CG1       35.6100  -20.2810    9.7290 C.3    99  VAL99       0.0019
    143  CG2       34.9160  -22.0370    8.0980 C.3    99  VAL99       0.0019
    144  N         38.4780  -15.8450    7.9030 N.3   103  CYS103     -0.1235
    145  CA        38.4750  -14.7830    8.9250 C.3   103  CYS103      0.1677
    146  C         39.5810  -13.7880    8.6450 C.2   103  CYS103      0.2270
    147  O         39.3600  -12.5730    8.5940 O.2   103  CYS103     -0.2867
    148  CB        38.7370  -15.3420   10.3140 C.3   103  CYS103      0.0956
    149  SG        37.6270  -16.5910   10.8470 S.3   103  CYS103     -0.0801
    150  N         42.2160  -20.4780   16.7810 N.3   122  TYR122     -0.1241
    151  CA        41.2750  -19.9010   15.8230 C.3   122  TYR122      0.1605
    152  C         40.6680  -18.6170   16.3750 C.2   122  TYR122      0.2264
    153  O         40.4680  -18.5050   17.5800 O.2   122  TYR122     -0.2867
    154  CB        40.1480  -20.8950   15.5330 C.3   122  TYR122      0.0534
    155  CG        40.6050  -22.2950   15.1440 C.ar  122  TYR122     -0.0201
    156  CD1       40.6000  -23.3470   16.0760 C.ar  122  TYR122     -0.0009
    157  CD2       41.0260  -22.5740   13.8320 C.ar  122  TYR122     -0.0009
    158  CE1       41.0060  -24.6430   15.7070 C.ar  122  TYR122      0.0417
    159  CE2       41.4330  -23.8650   13.4540 C.ar  122  TYR122      0.0417
    160  CZ        41.4240  -24.8840   14.3890 C.ar  122  TYR122      0.1957
    161  OH        41.8330  -26.1330   13.9940 O.3   122  TYR122     -0.2866
    162  N         37.7110  -17.6660   16.3480 N.3   124  THR124     -0.1218
    163  CA        36.4320  -18.0000   16.9570 C.3   124  THR124      0.1862
    164  C         36.5800  -18.5170   18.3830 C.2   124  THR124      0.2287
    165  O         35.5860  -18.7210   19.0650 O.2   124  THR124     -0.2866
    166  CB        35.6320  -19.0290   16.0920 C.3   124  THR124      0.1770
    167  OG1       36.4690  -20.1340   15.7490 O.3   124  THR124     -0.2211
    168  CG2       35.1450  -18.3810   14.7980 C.3   124  THR124      0.0375
    169  N         30.2690  -16.1740   16.3080 N.3   130  VAL130     -0.1231
    170  CA        30.4080  -16.2220   14.8590 C.3   130  VAL130      0.1692
    171  C         30.2740  -17.6690   14.4160 C.2   130  VAL130      0.2592
    172  O         29.8590  -17.9440   13.2850 O.2   130  VAL130     -0.2718
    173  CB        31.7280  -15.5980   14.3710 C.3   130  VAL130      0.0266
    174  CG1       31.8920  -15.7700   12.8580 C.3   130  VAL130      0.0020
    175  CG2       31.7560  -14.1090   14.7170 C.3   130  VAL130      0.0020
    176  N         30.5930  -18.5850   15.3310 N.am  131  GLN131     -0.1966
    177  CA        30.2690  -19.9980   15.1700 C.3   131  GLN131      0.1733
    178  C         28.7840  -20.2820   15.4500 C.2   131  GLN131      0.2616
    179  O         28.4230  -20.9470   16.4260 O.2   131  GLN131     -0.2715
    180  CB        31.1560  -20.8610   16.0470 C.3   131  GLN131      0.0408
    181  CG        30.9550  -22.3310   15.8050 C.3   131  GLN131      0.0908
    182  CD        31.6980  -23.1910   16.8060 C.2   131  GLN131      0.2608
    183  OE1       32.5450  -22.6990   17.5770 O.2   131  GLN131     -0.2717
    184  NE2       31.3840  -24.4930   16.8090 N.am  131  GLN131     -0.0878
    185  N         27.9360  -19.7420   14.5800 N.am  132  HIS132     -0.1973
    186  CA        26.5150  -20.0610   14.5360 C.3   132  HIS132      0.1656
    187  C         25.7990  -19.9790   15.8780 C.2   132  HIS132      0.2291
    188  O         24.9610  -20.8120   16.2000 O.2   132  HIS132     -0.2864
    189  CB        26.3120  -21.4210   13.8710 C.3   132  HIS132      0.0771
    190  CG        26.8200  -21.4710   12.4670 C.ar  132  HIS132      0.0820
    191  ND1       26.1210  -20.9330   11.4060 N.ar  132  HIS132     -0.2267
    192  CD2       27.9720  -21.9620   11.9510 C.ar  132  HIS132      0.1154
    193  CE1       26.8130  -21.1080   10.2950 C.ar  132  HIS132      0.1986
    194  NE2       27.9380  -21.7310   10.5960 N.ar  132  HIS132     -0.2212
    195  N         26.3820  -20.4950   19.0140 N.3   134  ARG134     -0.1245
    196  CA        26.3400  -21.7220   19.7780 C.3   134  ARG134      0.1563
    197  C         25.9400  -21.5320   21.2280 C.2   134  ARG134      0.2260
    198  O         25.4120  -22.4570   21.8420 O.2   134  ARG134     -0.2867
    199  CB        27.6600  -22.5140   19.6680 C.3   134  ARG134      0.0307
    200  CG        28.9290  -21.8260   20.1500 C.3   134  ARG134      0.0489
    201  CD        30.1240  -22.7010   19.7860 C.3   134  ARG134      0.2205
    202  NE        31.4100  -22.1740   20.2460 N.pl3 134  ARG134     -0.0865
    203  CZ        31.9530  -22.4420   21.4330 C.cat 134  ARG134      0.5346
    204  NH1       31.3240  -23.2160   22.3060 N.pl3 134  ARG134      0.1354
    205  NH2       33.1240  -21.9250   21.7560 N.pl3 134  ARG134      0.1354
@<TRIPOS>BOND
     1    77    76    1
     2    76    73    1
     3    12    13    1
     4     1     2    1
     5    13    14    1
     6    13    16    1
     7     3     2    1
     8     3     4    2
     9    17    16    1
    10    73    72    1
    11    73    74    1
    12    72    66   am
    13     2     5    1
    14    14    18   am
    15    14    15    2
    16    18    19    1
    17    74    78   am
    18    74    75    2
    19    20    21    2
    20    20    19    1
    21    78    79    1
    22    66    65    1
    23    66    67    2
    24     5     6    1
    25    65    68    1
    26    65    64    1
    27    23    22    1
    28    93    92    2
    29    80    79    1
    30    80    81    2
    31    92    91    1
    32    19    22    1
    33    83    82    1
    34    82    79    1
    35    68    70    1
    36    68    69    1
    37    84    85    1
    38    22    24    1
    39     6     7    1
    40    91    90    1
    41    91    94    1
    42    90    86   am
    43    10     9    1
    44    94    95    1
    45     7     8    1
    46     9     8    2
    47     9    11    1
    48    86    85    1
    49    86    87    2
    50    69    71    1
    51    85    88    1
    52    53    51   ar
    53    53    52   ar
    54    30    29    1
    55    30    31    1
    56    95    97   ar
    57    95    96   ar
    58    29    26    1
    59    51    49   ar
    60    52    50   ar
    61    88    89    1
    62   127   125    1
    63    31    32    1
    64    97    99   ar
    65    57    56    2
    66    96    98   ar
    67   137   138    1
    68   125   122    1
    69   125   126    1
    70    50    49   ar
    71    49    48    1
    72   122   121    1
    73   122   123    1
    74    25    26    1
    75    26    27    1
    76    56    55    1
    77    99    98   ar
    78   138   139    1
    79   138   141    1
    80    28    27    2
    81   144   145    1
    82    41    42    1
    83    41    40    1
    84   143   141    1
    85   140   139    2
    86   124   123    2
    87   123   128   am
    88    43    42    2
    89    48    45    1
    90   147   146    2
    91    55    58    1
    92    55    54    1
    93   146   145    1
    94   141   142    1
    95    61    59   ar
    96    61    63   ar
    97    58    59    1
    98    39    37    1
    99    40    35   am
   100   145   148    1
   101    59    60   ar
   102    46    47    2
   103    46    45    1
   104    36    35    2
   105    35    34    1
   106   128   129    1
   107    45    44    1
   108    63    62   ar
   109    37    34    1
   110    37    38    1
   111   130   131    2
   112   130   129    1
   113   193   194   ar
   114   193   191   ar
   115   148   149    1
   116   194   192   ar
   117    34    33    1
   118   129   132    1
   119    60    62   ar
   120   106   104    1
   121   191   190   ar
   122   117   120    1
   123   117   118    1
   124   117   116    1
   125   118   119    2
   126   107   105    1
   127   192   190   ar
   128   111   110    2
   129   132   133    1
   130   105   104    1
   131   190   189    1
   132   104   101    1
   133   116   110   am
   134   133   134    1
   135   110   109    1
   136   174   173    1
   137   172   171    2
   138   159   157   ar
   139   159   160   ar
   140   101   102    1
   141   101   100    1
   142   134   135    1
   143   108   102   am
   144   108   109    1
   145   157   155   ar
   146   189   186    1
   147   102   103    2
   148   109   112    1
   149   161   160    1
   150   173   175    1
   151   173   170    1
   152   160   158   ar
   153   171   170    1
   154   171   176   am
   155   186   185    1
   156   186   187    1
   157   185   178   am
   158   168   166    1
   159   170   169    1
   160   135   136    1
   161   112   113    1
   162   155   154    1
   163   155   156   ar
   164   177   176    1
   165   177   178    1
   166   177   180    1
   167   178   179    2
   168   154   151    1
   169   158   156   ar
   170   167   166    1
   171   181   180    1
   172   181   182    1
   173   151   152    1
   174   151   150    1
   175   187   188    2
   176   166   163    1
   177   162   163    1
   178   152   153    2
   179   113   115    1
   180   113   114    1
   181   182   184   am
   182   182   183    2
   183   163   164    1
   184   164   165    2
   185   195   196    1
   186   199   196    1
   187   199   200    1
   188   196   197    1
   189   201   200    1
   190   201   202    1
   191   202   203    2
   192   197   198    2
   193   203   205    1
   194   203   204    1
