@<TRIPOS>MOLECULE
tmp/2vr0B05.pdb
 165 158 0 0 0
SMALL
GASTEIGER

@<TRIPOS>ATOM
      1  N         42.9610   24.0090   19.2060 N.3   284  THR284     -0.1203
      2  CA        42.2920   22.8780   18.5790 C.3   284  THR284      0.1994
      3  C         42.9380   22.2950   17.3100 C.2   284  THR284      0.2617
      4  O         42.9220   21.0840   17.1230 O.2   284  THR284     -0.2717
      5  CB        40.7450   23.0580   18.4320 C.3   284  THR284      0.1784
      6  OG1       40.3780   22.9050   17.0550 O.3   284  THR284     -0.2211
      7  CG2       40.2400   24.4040   18.9800 C.3   284  THR284      0.0376
      8  N         43.5260   23.1330   16.4560 N.am  285  HIS285     -0.1975
      9  CA        44.2530   22.6050   15.2750 C.3   285  HIS285      0.1656
     10  C         45.6600   22.0350   15.6070 C.2   285  HIS285      0.2291
     11  O         45.9920   20.8850   15.2670 O.2   285  HIS285     -0.2864
     12  CB        44.2910   23.6250   14.1290 C.3   285  HIS285      0.0771
     13  CG        42.9790   23.7910   13.4170 C.ar  285  HIS285      0.0820
     14  ND1       42.1960   24.9150   13.5540 N.ar  285  HIS285     -0.2267
     15  CD2       42.3210   22.9770   12.5520 C.ar  285  HIS285      0.1154
     16  CE1       41.0980   24.7740   12.8280 C.ar  285  HIS285      0.1986
     17  NE2       41.1530   23.6100   12.2030 N.ar  285  HIS285     -0.2212
     18  N         46.0050   18.8490   17.3690 N.3   288  ALA288     -0.1245
     19  CA        45.6670   17.7370   16.4740 C.3   288  ALA288      0.1562
     20  C         46.7450   17.4590   15.4300 C.2   288  ALA288      0.2260
     21  O         46.6220   16.5140   14.6520 O.2   288  ALA288     -0.2867
     22  CB        44.3390   17.9730   15.8100 C.3   288  ALA288      0.0290
     23  N         47.6760   19.5680   12.9940 N.3   290  VAL290     -0.1245
     24  CA        47.4800   20.3450   11.7790 C.3   290  VAL290      0.1561
     25  C         48.4180   21.5190   11.8490 C.2   290  VAL290      0.2260
     26  O         48.2310   22.4170   12.6480 O.2   290  VAL290     -0.2867
     27  CB        46.0580   20.8920   11.6930 C.3   290  VAL290      0.0252
     28  CG1       45.8550   21.6230   10.4160 C.3   290  VAL290      0.0019
     29  CG2       45.0580   19.7690   11.8360 C.3   290  VAL290      0.0019
     30  N         49.7950   23.2140    6.6730 N.3   294  ASP294     -0.1225
     31  CA        48.5000   22.6820    6.1920 C.3   294  ASP294      0.1805
     32  C         47.6060   23.8390    5.7380 C.2   294  ASP294      0.2598
     33  O         46.9340   23.7480    4.7100 O.2   294  ASP294     -0.2718
     34  CB        47.7780   21.8280    7.2480 C.3   294  ASP294      0.1424
     35  CG        48.5820   20.5960    7.6800 C.2   294  ASP294      0.3668
     36  OD1       49.8150   20.5960    7.5200 O.co2 294  ASP294     -0.2456
     37  OD2       47.9940   19.6130    8.1840 O.co2 294  ASP294     -0.2456
     38  N         47.6580   24.9520    6.4760 N.am  295  CYS295     -0.1970
     39  CA        46.7680   26.0790    6.2180 C.3   295  CYS295      0.1712
     40  C         47.3470   27.2140    5.4030 C.2   295  CYS295      0.2296
     41  O         46.6510   27.8380    4.5970 O.2   295  CYS295     -0.2864
     42  CB        46.2750   26.6230    7.5210 C.3   295  CYS295      0.0983
     43  SG        45.1480   25.4510    8.2430 S.3   295  CYS295     -0.0798
     44  N         44.6530   32.8390    4.9690 N.3   316  PRO316     -0.2102
     45  CA        43.8800   31.7830    4.2890 C.3   316  PRO316      0.1504
     46  C         42.4870   32.2390    3.8390 C.2   316  PRO316      0.2575
     47  O         41.8600   31.5580    3.0050 O.2   316  PRO316     -0.2718
     48  CB        43.7410   30.7060    5.3620 C.3   316  PRO316      0.0282
     49  CG        44.8460   30.9380    6.2530 C.3   316  PRO316      0.0208
     50  CD        45.0330   32.4240    6.3260 C.3   316  PRO316      0.0893
     51  N         42.0410   33.3800    4.3770 N.am  317  MET317     -0.1980
     52  CA        40.7010   33.9450    4.1770 C.3   317  MET317      0.1605
     53  C         40.6080   34.8420    2.9670 C.2   317  MET317      0.2287
     54  O         39.5410   35.3270    2.6630 O.2   317  MET317     -0.2864
     55  CB        40.2750   34.7870    5.3860 C.3   317  MET317      0.0413
     56  CG        40.1320   34.0200    6.6850 C.3   317  MET317      0.0598
     57  SD        38.5290   33.2070    6.8130 S.3   317  MET317     -0.1393
     58  CE        37.5030   34.6450    7.2390 C.3   317  MET317      0.0692
     59  N         38.0840   28.9340   -0.0050 N.3   322  MET322     -0.1245
     60  CA        38.7190   28.3190    1.1790 C.3   322  MET322      0.1570
     61  C         39.3770   26.9740    0.8660 C.2   322  MET322      0.2261
     62  O         39.4770   26.0930    1.7150 O.2   322  MET322     -0.2867
     63  CB        37.7120   28.1840    2.3380 C.3   322  MET322      0.0387
     64  CG        36.9730   29.4600    2.6910 C.3   322  MET322      0.0595
     65  SD        38.0400   30.6720    3.4790 S.3   322  MET322     -0.1393
     66  CE        38.1110   30.0170    5.1590 C.3   322  MET322      0.0692
     67  N         42.0160   25.6330    0.8650 N.3   324  ALA324     -0.1231
     68  CA        42.9710   25.0270    1.7850 C.3   324  ALA324      0.1694
     69  C         42.2800   24.2220    2.8860 C.2   324  ALA324      0.2592
     70  O         42.6840   23.0870    3.1890 O.2   324  ALA324     -0.2718
     71  CB        43.8870   26.0860    2.3800 C.3   324  ALA324      0.0304
     72  N         41.2450   24.8090    3.4810 N.am  325  CYS325     -0.1970
     73  CA        40.5330   24.1800    4.5860 C.3   325  CYS325      0.1712
     74  C         39.8210   22.9540    4.0870 C.2   325  CYS325      0.2296
     75  O         39.6530   21.9700    4.8080 O.2   325  CYS325     -0.2864
     76  CB        39.4710   25.1060    5.1370 C.3   325  CYS325      0.0983
     77  SG        40.0110   26.7560    5.4250 S.3   325  CYS325     -0.0798
     78  N         40.4620   20.6830    1.9600 N.3   327  GLN327     -0.1231
     79  CA        41.1840   19.4150    1.8840 C.3   327  GLN327      0.1698
     80  C         40.7660   18.5490    3.0630 C.2   327  GLN327      0.2592
     81  O         40.7900   17.3240    2.9950 O.2   327  GLN327     -0.2718
     82  CB        42.6980   19.6140    1.9360 C.3   327  GLN327      0.0381
     83  CG        43.2610   20.6370    0.9580 C.3   327  GLN327      0.0905
     84  CD        43.1400   20.2440   -0.5050 C.2   327  GLN327      0.2608
     85  OE1       42.7710   19.1240   -0.8440 O.2   327  GLN327     -0.2717
     86  NE2       43.4500   21.1800   -1.3780 N.am  327  GLN327     -0.0878
     87  N         40.3810   19.1890    4.1540 N.am  328  CYS328     -0.1956
     88  CA        39.9120   18.4600    5.3080 C.3   328  CYS328      0.1843
     89  C         38.4110   18.6290    5.4070 C.2   328  CYS328      0.2625
     90  O         37.6630   17.6780    5.1670 O.2   328  CYS328     -0.2714
     91  CB        40.6400   18.9320    6.5650 C.3   328  CYS328      0.0997
     92  SG        42.4230   18.7150    6.3880 S.3   328  CYS328     -0.0797
     93  N         37.9710   19.8500    5.6930 N.am  329  HIS329     -0.1973
     94  CA        36.5630   20.1320    5.9120 C.3   329  HIS329      0.1656
     95  C         35.7630   20.0970    4.5970 C.2   329  HIS329      0.2291
     96  O         34.9890   21.0060    4.3080 O.2   329  HIS329     -0.2864
     97  CB        36.3980   21.4760    6.6450 C.3   329  HIS329      0.0771
     98  CG        37.2150   21.5940    7.9060 C.ar  329  HIS329      0.0820
     99  ND1       36.8790   20.9450    9.0750 N.ar  329  HIS329     -0.2267
    100  CD2       38.3520   22.2870    8.1780 C.ar  329  HIS329      0.1154
    101  CE1       37.7780   21.2220   10.0030 C.ar  329  HIS329      0.1986
    102  NE2       38.6760   22.0410    9.4890 N.ar  329  HIS329     -0.2212
    103  N         30.3190   28.8070    5.1440 N.3   336  TYR336     -0.1227
    104  CA        30.2020   28.2080    6.4840 C.3   336  TYR336      0.1736
    105  C         31.5090   28.4180    7.2590 C.2   336  TYR336      0.2595
    106  O         31.5260   28.9590    8.3630 O.2   336  TYR336     -0.2718
    107  CB        29.8120   26.7140    6.4740 C.3   336  TYR336      0.0548
    108  CG        29.8290   26.1560    7.8790 C.ar  336  TYR336     -0.0200
    109  CD1       28.7340   26.3230    8.7250 C.ar  336  TYR336     -0.0009
    110  CD2       30.9670   25.5330    8.3920 C.ar  336  TYR336     -0.0009
    111  CE1       28.7450   25.8410   10.0540 C.ar  336  TYR336      0.0417
    112  CE2       30.9990   25.0390    9.7080 C.ar  336  TYR336      0.0417
    113  CZ        29.8800   25.1940   10.5380 C.ar  336  TYR336      0.1957
    114  OH        29.8810   24.7140   11.8420 O.3   336  TYR336     -0.2866
    115  N         32.6040   28.0000    6.6480 N.am  337  LEU337     -0.1980
    116  CA        33.8930   28.1470    7.2660 C.3   337  LEU337      0.1596
    117  C         34.1810   29.5900    7.6350 C.2   337  LEU337      0.2287
    118  O         34.5800   29.8710    8.7770 O.2   337  LEU337     -0.2864
    119  CB        34.9810   27.5460    6.3780 C.3   337  LEU337      0.0297
    120  CG        34.8440   26.0240    6.2490 C.3   337  LEU337      0.0022
    121  CD1       35.7610   25.4620    5.1820 C.3   337  LEU337      0.0001
    122  CD2       35.0850   25.3360    7.5890 C.3   337  LEU337      0.0001
    123  N         32.4270   30.5410   10.8870 N.3   340  ARG340     -0.1231
    124  CA        32.9580   29.9850   12.1270 C.3   340  ARG340      0.1694
    125  C         34.2320   30.6640   12.5710 C.2   340  ARG340      0.2591
    126  O         34.5020   30.7230   13.7770 O.2   340  ARG340     -0.2718
    127  CB        33.1560   28.4690   12.0580 C.3   340  ARG340      0.0321
    128  CG        31.8810   27.6430   11.7930 C.3   340  ARG340      0.0489
    129  CD        30.6790   28.0390   12.6430 C.3   340  ARG340      0.2205
    130  NE        30.9580   27.9950   14.0750 N.pl3 340  ARG340     -0.0865
    131  CZ        30.1310   28.3990   15.0420 C.cat 340  ARG340      0.5346
    132  NH1       28.9410   28.8890   14.7390 N.pl3 340  ARG340      0.1354
    133  NH2       30.5030   28.3120   16.3210 N.pl3 340  ARG340      0.1354
    134  N         35.0050   31.1920   11.6180 N.am  341  VAL341     -0.1980
    135  CA        36.1900   32.0030   11.9540 C.3   341  VAL341      0.1595
    136  C         35.7570   33.3540   12.5240 C.2   341  VAL341      0.2287
    137  O         36.3230   33.8230   13.5010 O.2   341  VAL341     -0.2864
    138  CB        37.1510   32.2160   10.7490 C.3   341  VAL341      0.0276
    139  CG1       38.3000   33.1330   11.1210 C.3   341  VAL341      0.0022
    140  CG2       37.7050   30.9030   10.2500 C.3   341  VAL341      0.0022
    141  N         34.6910   33.4920   16.3010 N.3   344  THR344     -0.1218
    142  CA        35.7550   33.6690   17.2500 C.3   344  THR344      0.1862
    143  C         36.3350   35.0570   17.1380 C.2   344  THR344      0.2287
    144  O         36.5750   35.7140   18.1670 O.2   344  THR344     -0.2866
    145  CB        36.8380   32.6760   16.9780 C.3   344  THR344      0.1770
    146  OG1       36.3250   31.3690   17.2310 O.3   344  THR344     -0.2211
    147  CG2       38.0280   32.9250   17.8710 C.3   344  THR344      0.0375
    148  N         41.8330   32.9600   16.2390 N.3   409  PHE409     -0.1241
    149  CA        41.4300   31.7560   15.5480 C.3   409  PHE409      0.1605
    150  C         42.2940   30.5510   15.9410 C.2   409  PHE409      0.2264
    151  O         41.7650   29.4550   16.1090 O.2   409  PHE409     -0.2867
    152  CB        41.3670   31.9320   14.0240 C.3   409  PHE409      0.0534
    153  CG        41.0950   30.6500   13.2910 C.ar  409  PHE409     -0.0203
    154  CD1       39.8360   30.0840   13.2970 C.ar  409  PHE409     -0.0042
    155  CD2       42.1110   29.9880   12.6360 C.ar  409  PHE409     -0.0042
    156  CE1       39.5750   28.8790   12.6340 C.ar  409  PHE409     -0.0003
    157  CE2       41.8600   28.7750   11.9540 C.ar  409  PHE409     -0.0003
    158  CZ        40.5880   28.2240   11.9600 C.ar  409  PHE409     -0.0000
    159  N         41.0170   29.6590   20.0390 N.3   412  PRO412     -0.2116
    160  CA        39.8580   30.3650   20.5370 C.3   412  PRO412      0.1372
    161  C         39.7840   30.4140   22.0580 C.2   412  PRO412      0.2244
    162  O         39.7260   31.5020   22.6390 O.2   412  PRO412     -0.2868
    163  CB        38.6960   29.5450   19.9700 C.3   412  PRO412      0.0268
    164  CG        39.2200   28.9860   18.7200 C.3   412  PRO412      0.0207
    165  CD        40.6610   28.6970   18.9830 C.3   412  PRO412      0.0892
@<TRIPOS>BOND
     1    86    84   am
     2    85    84    2
     3    84    83    1
     4    59    60    1
     5    67    68    1
     6    61    60    1
     7    61    62    2
     8    83    82    1
     9    60    63    1
    10    68    71    1
    11    68    69    1
    12    79    82    1
    13    79    78    1
    14    79    80    1
    15    63    64    1
    16    54    53    2
    17    64    65    1
    18    69    70    2
    19    69    72   am
    20    53    52    1
    21    81    80    2
    22    47    46    2
    23    80    87   am
    24    65    66    1
    25    72    73    1
    26    46    45    1
    27    46    51   am
    28    74    73    1
    29    74    75    2
    30    87    88    1
    31    52    51    1
    32    52    55    1
    33    45    44    1
    34    45    48    1
    35    96    95    2
    36    73    76    1
    37    95    94    1
    38    41    40    2
    39    33    32    2
    40    44    50    1
    41    76    77    1
    42   103   104    1
    43    90    89    2
    44   121   120    1
    45    88    89    1
    46    88    91    1
    47    48    49    1
    48    55    56    1
    49    40    39    1
    50    89    93   am
    51    93    94    1
    52    32    31    1
    53    32    38   am
    54    94    97    1
    55    31    30    1
    56    31    34    1
    57    39    38    1
    58    39    42    1
    59   120   119    1
    60   120   122    1
    61    49    50    1
    62   119   116    1
    63    92    91    1
    64   107   104    1
    65   107   108    1
    66   104   105    1
    67    97    98    1
    68   115   105   am
    69   115   116    1
    70    56    57    1
    71    57    58    1
    72    34    35    1
    73   105   106    2
    74   116   117    1
    75    36    35   ar
    76    42    43    1
    77   117   118    2
    78    35    37   ar
    79   108   110   ar
    80   108   109   ar
    81    98   100   ar
    82    98    99   ar
    83   100   102   ar
    84   110   112   ar
    85   109   111   ar
    86    99   101   ar
    87   102   101   ar
    88   112   113   ar
    89   111   113   ar
    90   140   138    1
    91    28    27    1
    92   113   114    1
    93   138   139    1
    94   138   135    1
    95   123   124    1
    96   134   135    1
    97   134   125   am
    98    27    24    1
    99    27    29    1
   100    24    25    1
   101    24    23    1
   102   128   127    1
   103   128   129    1
   104    25    26    2
   105   135   136    1
   106   157   158   ar
   107   157   155   ar
   108   158   156   ar
   109   127   124    1
   110   124   125    1
   111    17    15   ar
   112    17    16   ar
   113   136   137    2
   114    15    13   ar
   115   125   126    2
   116   156   154   ar
   117   155   153   ar
   118   129   130    1
   119    16    14   ar
   120   153   154   ar
   121   153   152    1
   122    13    14   ar
   123    13    12    1
   124   152   149    1
   125   130   131    2
   126    12     9    1
   127    21    20    2
   128   132   131    1
   129   131   133    1
   130    11    10    2
   131     9    10    1
   132     9     8    1
   133    20    19    1
   134   149   150    1
   135   149   148    1
   136    22    19    1
   137   150   151    2
   138   141   142    1
   139     8     3   am
   140    19    18    1
   141   145   146    1
   142   145   142    1
   143   145   147    1
   144     6     5    1
   145     4     3    2
   146   143   142    1
   147   143   144    2
   148     3     2    1
   149     5     2    1
   150     5     7    1
   151     2     1    1
   152   164   165    1
   153   164   163    1
   154   165   159    1
   155   163   160    1
   156   159   160    1
   157   160   161    1
   158   161   162    2
