@<TRIPOS>MOLECULE
tmp/2vr0B02.pdb
 255 247 0 0 0
SMALL
GASTEIGER

@<TRIPOS>ATOM
      1  N         59.0170   11.8650    0.3870 N.3    12  THR12      -0.1204
      2  CA        59.1560   13.2030   -0.2050 C.3    12  THR12       0.1979
      3  C         60.2020   13.1730   -1.3100 C.2    12  THR12       0.2459
      4  O         61.2540   12.5470   -1.1400 O.2    12  THR12      -0.2732
      5  CB        59.6190   14.2540    0.8040 C.3    12  THR12       0.1783
      6  OG1       60.5320   13.6570    1.7280 O.3    12  THR12      -0.2211
      7  CG2       58.4390   14.8470    1.5570 C.3    12  THR12       0.0376
      8  N         59.9280   13.8570   -2.4430 N.am   13  PRO13      -0.2728
      9  CA        60.8760   13.8870   -3.5570 C.3    13  PRO13       0.1401
     10  C         62.2310   14.4050   -3.1110 C.2    13  PRO13       0.2269
     11  O         62.3110   15.2170   -2.1730 O.2    13  PRO13      -0.2865
     12  CB        60.2350   14.8730   -4.5270 C.3    13  PRO13       0.0296
     13  CG        58.8020   14.7510   -4.2520 C.3    13  PRO13       0.0237
     14  CD        58.7290   14.6490   -2.7550 C.3    13  PRO13       0.0939
     15  N         66.0590   16.1020   -4.0240 N.3    15  TYR15      -0.1241
     16  CA        66.6580   17.1050   -4.9070 C.3    15  TYR15       0.1605
     17  C         68.1670   17.1690   -4.7410 C.2    15  TYR15       0.2264
     18  O         68.6970   16.8330   -3.6830 O.2    15  TYR15      -0.2867
     19  CB        66.0540   18.4940   -4.6380 C.3    15  TYR15       0.0534
     20  CG        64.5410   18.5020   -4.6270 C.ar   15  TYR15      -0.0201
     21  CD1       63.8310   18.4400   -3.4140 C.ar   15  TYR15      -0.0009
     22  CD2       63.8130   18.5530   -5.8300 C.ar   15  TYR15      -0.0009
     23  CE1       62.4530   18.4380   -3.4000 C.ar   15  TYR15       0.0417
     24  CE2       62.4250   18.5550   -5.8240 C.ar   15  TYR15       0.0417
     25  CZ        61.7560   18.4960   -4.6040 C.ar   15  TYR15       0.1957
     26  OH        60.3860   18.4910   -4.5790 O.3    15  TYR15      -0.2866
     27  N         67.8380   30.4650   -6.2800 N.3    29  PHE29      -0.1241
     28  CA        66.9430   29.3350   -6.2520 C.3    29  PHE29       0.1605
     29  C         65.9910   29.3860   -7.4290 C.2    29  PHE29       0.2264
     30  O         65.3970   28.3760   -7.7890 O.2    29  PHE29      -0.2867
     31  CB        66.1440   29.3290   -4.9520 C.3    29  PHE29       0.0534
     32  CG        66.9890   29.1430   -3.7080 C.ar   29  PHE29      -0.0203
     33  CD1       67.6920   30.2060   -3.1620 C.ar   29  PHE29      -0.0042
     34  CD2       67.0780   27.9060   -3.0930 C.ar   29  PHE29      -0.0042
     35  CE1       68.4570   30.0420   -2.0410 C.ar   29  PHE29      -0.0003
     36  CE2       67.8520   27.7400   -1.9650 C.ar   29  PHE29      -0.0003
     37  CZ        68.5360   28.8140   -1.4440 C.ar   29  PHE29      -0.0000
     38  N         63.8080   26.0290   -9.2360 N.3    33  PHE33      -0.1241
     39  CA        62.4780   25.8770   -8.6060 C.3    33  PHE33       0.1605
     40  C         61.4840   26.9690   -9.0060 C.2    33  PHE33       0.2264
     41  O         60.9710   27.6870   -8.1310 O.2    33  PHE33      -0.2867
     42  CB        62.6280   25.8010   -7.0860 C.3    33  PHE33       0.0534
     43  CG        63.5440   24.7150   -6.6580 C.ar   33  PHE33      -0.0203
     44  CD1       64.7940   25.0140   -6.1430 C.ar   33  PHE33      -0.0042
     45  CD2       63.1850   23.3790   -6.8570 C.ar   33  PHE33      -0.0042
     46  CE1       65.6580   24.0080   -5.7780 C.ar   33  PHE33      -0.0003
     47  CE2       64.0320   22.3640   -6.4980 C.ar   33  PHE33      -0.0003
     48  CZ        65.2790   22.6740   -5.9590 C.ar   33  PHE33      -0.0000
     49  N         57.8110   27.1360   -7.1810 N.3    36  GLN36      -0.1231
     50  CA        57.8110   27.6020   -5.7940 C.3    36  GLN36       0.1698
     51  C         58.1710   29.0600   -5.7320 C.2    36  GLN36       0.2592
     52  O         57.5580   29.8140   -4.9970 O.2    36  GLN36      -0.2718
     53  CB        58.7720   26.7960   -4.9390 C.3    36  GLN36       0.0381
     54  CG        58.2590   25.4100   -4.5740 C.3    36  GLN36       0.0905
     55  CD        58.5180   24.3450   -5.6340 C.2    36  GLN36       0.2608
     56  OE1       59.2180   24.5750   -6.6050 O.2    36  GLN36      -0.2717
     57  NE2       57.9540   23.1700   -5.4320 N.am   36  GLN36      -0.0878
     58  N         59.1610   29.4580   -6.5210 N.am   37  TYR37      -0.1976
     59  CA        59.5790   30.8640   -6.6040 C.3    37  TYR37       0.1639
     60  C         58.4320   31.7540   -7.0600 C.2    37  TYR37       0.2290
     61  O         58.1240   32.7560   -6.4010 O.2    37  TYR37      -0.2864
     62  CB        60.7900   31.0440   -7.5370 C.3    37  TYR37       0.0560
     63  CG        61.6110   32.2750   -7.2180 C.ar   37  TYR37      -0.0198
     64  CD1       62.6260   32.2240   -6.2690 C.ar   37  TYR37      -0.0009
     65  CD2       61.3600   33.4870   -7.8420 C.ar   37  TYR37      -0.0009
     66  CE1       63.3680   33.3470   -5.9500 C.ar   37  TYR37       0.0417
     67  CE2       62.1040   34.6180   -7.5360 C.ar   37  TYR37       0.0417
     68  CZ        63.1060   34.5380   -6.5870 C.ar   37  TYR37       0.1957
     69  OH        63.8520   35.6480   -6.2510 O.3    37  TYR37      -0.2866
     70  N         56.2540   32.0970   -4.2180 N.3    40  TYR40      -0.1241
     71  CA        56.9120   32.9630   -3.2320 C.3    40  TYR40       0.1605
     72  C         56.7220   34.4660   -3.5710 C.2    40  TYR40       0.2264
     73  O         56.4860   35.2960   -2.6890 O.2    40  TYR40      -0.2867
     74  CB        58.3970   32.5900   -3.1800 C.3    40  TYR40       0.0534
     75  CG        59.3420   33.5870   -2.5090 C.ar   40  TYR40      -0.0201
     76  CD1       59.4170   33.6720   -1.1240 C.ar   40  TYR40      -0.0009
     77  CD2       60.1870   34.4090   -3.2630 C.ar   40  TYR40      -0.0009
     78  CE1       60.2770   34.5620   -0.4960 C.ar   40  TYR40       0.0417
     79  CE2       61.0500   35.3110   -2.6380 C.ar   40  TYR40       0.0417
     80  CZ        61.0850   35.3720   -1.2510 C.ar   40  TYR40       0.1957
     81  OH        61.9300   36.2310   -0.5950 O.3    40  TYR40      -0.2866
     82  N         56.3940   38.1240    3.1750 N.3    97  HIS97      -0.1241
     83  CA        57.8130   37.8990    3.5190 C.3    97  HIS97       0.1621
     84  C         58.8050   38.6940    2.6800 C.2    97  HIS97       0.2264
     85  O         59.8250   39.1430    3.1930 O.2    97  HIS97      -0.2867
     86  CB        58.1560   36.4010    3.5010 C.3    97  HIS97       0.0745
     87  CG        57.5820   35.6380    4.6550 C.ar   97  HIS97       0.0817
     88  ND1       57.2380   34.3080    4.5730 N.ar   97  HIS97      -0.2268
     89  CD2       57.2690   36.0270    5.9140 C.ar   97  HIS97       0.1154
     90  CE1       56.7620   33.9010    5.7360 C.ar   97  HIS97       0.1986
     91  NE2       56.7630   34.9270    6.5670 N.ar   97  HIS97      -0.2212
     92  N         63.7750   37.1590    3.9650 N.3   161  ILE161     -0.1231
     93  CA        63.3260   35.8620    4.4720 C.3   161  ILE161      0.1692
     94  C         63.0320   34.8130    3.4120 C.2   161  ILE161      0.2593
     95  O         61.9020   34.3540    3.3020 O.2   161  ILE161     -0.2718
     96  CB        62.0680   36.0820    5.3390 C.3   161  ILE161      0.0266
     97  CG1       62.4410   36.9060    6.5820 C.3   161  ILE161      0.0019
     98  CG2       61.3910   34.7510    5.7480 C.3   161  ILE161      0.0020
     99  CD1       61.2880   37.7210    7.1330 C.3   161  ILE161      0.0001
    100  N         64.0490   34.4010    2.6550 N.am  162  GLY162     -0.1942
    101  CA        63.8440   33.4980    1.5250 C.3   162  GLY162      0.2014
    102  C         64.2490   32.0660    1.7840 C.2   162  GLY162      0.2639
    103  O         64.4890   31.6690    2.9190 O.2   162  GLY162     -0.2714
    104  N         64.3510   31.3080    0.7010 N.am  163  CYS163     -0.1967
    105  CA        64.5480   29.8670    0.7330 C.3   163  CYS163      0.1712
    106  C         65.5640   29.3710    1.7240 C.2   163  CYS163      0.2296
    107  O         65.3500   28.3450    2.3560 O.2   163  CYS163     -0.2864
    108  CB        65.0000   29.3710   -0.6280 C.3   163  CYS163      0.0983
    109  SG        64.5030   30.3810   -1.9900 S.3   163  CYS163     -0.0798
    110  N         66.3480   30.3610    4.5290 N.3   165  THR165     -0.1203
    111  CA        65.9360   30.3990    5.9130 C.3   165  THR165      0.1994
    112  C         65.3550   29.0630    6.3430 C.2   165  THR165      0.2618
    113  O         65.4150   28.7130    7.5270 O.2   165  THR165     -0.2717
    114  CB        64.9340   31.5590    6.2290 C.3   165  THR165      0.1784
    115  OG1       65.1560   32.6560    5.3320 O.3   165  THR165     -0.2211
    116  CG2       65.1260   32.0510    7.6680 C.3   165  THR165      0.0376
    117  N         64.8070   28.3170    5.3920 N.am  166  CYS166     -0.1955
    118  CA        64.1590   27.0370    5.7140 C.3   166  CYS166      0.1843
    119  C         64.7060   25.8050    4.9820 C.2   166  CYS166      0.2625
    120  O         64.4440   24.6790    5.3930 O.2   166  CYS166     -0.2714
    121  CB        62.6710   27.1060    5.4220 C.3   166  CYS166      0.0997
    122  SG        61.7380   28.2930    6.3680 S.3   166  CYS166     -0.0797
    123  N         65.4330   26.0180    3.8880 N.am  167  HIS167     -0.1973
    124  CA        65.9050   24.9190    3.0710 C.3   167  HIS167      0.1656
    125  C         67.4180   24.8890    3.0570 C.2   167  HIS167      0.2291
    126  O         68.0630   25.9220    2.9400 O.2   167  HIS167     -0.2864
    127  CB        65.4020   25.0730    1.6430 C.3   167  HIS167      0.0771
    128  CG        63.9260   24.9030    1.4940 C.ar  167  HIS167      0.0820
    129  ND1       63.3220   23.6670    1.4320 N.ar  167  HIS167     -0.2267
    130  CD2       62.9320   25.8150    1.3660 C.ar  167  HIS167      0.1154
    131  CE1       62.0190   23.8230    1.2730 C.ar  167  HIS167      0.1986
    132  NE2       61.7550   25.1170    1.2260 N.ar  167  HIS167     -0.2212
    133  N         67.7080   20.7520   -0.4480 N.3   172  MET172     -0.1245
    134  CA        66.3650   21.3420   -0.2480 C.3   172  MET172      0.1570
    135  C         65.5640   20.7630    0.9430 C.2   172  MET172      0.2261
    136  O         64.4020   21.1160    1.1550 O.2   172  MET172     -0.2867
    137  CB        65.5430   21.4130   -1.5430 C.3   172  MET172      0.0387
    138  CG        66.0920   22.4080   -2.5720 C.3   172  MET172      0.0595
    139  SD        66.3420   24.1440   -2.0540 S.3   172  MET172     -0.1393
    140  CE        64.6820   24.7980   -2.1380 C.3   172  MET172      0.0692
    141  N         64.1890   20.3780    4.6440 N.3   174  LEU174     -0.1245
    142  CA        63.7680   21.3640    5.6120 C.3   174  LEU174      0.1561
    143  C         64.8380   21.5290    6.6890 C.2   174  LEU174      0.2260
    144  O         65.5160   20.5640    7.0660 O.2   174  LEU174     -0.2867
    145  CB        62.4090   20.9980    6.2110 C.3   174  LEU174      0.0270
    146  CG        61.1490   21.3740    5.4150 C.3   174  LEU174      0.0019
    147  CD1       59.9050   21.0920    6.2400 C.3   174  LEU174      0.0001
    148  CD2       61.1550   22.8460    4.9700 C.3   174  LEU174      0.0001
    149  N         58.9350   14.9760    9.8440 N.3   197  ARG197     -0.1245
    150  CA        58.3740   15.9250    8.8680 C.3   197  ARG197      0.1563
    151  C         57.2690   16.8380    9.4650 C.2   197  ARG197      0.2260
    152  O         57.3240   18.0770    9.3390 O.2   197  ARG197     -0.2867
    153  CB        57.8830   15.1920    7.6120 C.3   197  ARG197      0.0307
    154  CG        57.3530   16.0890    6.5210 C.3   197  ARG197      0.0489
    155  CD        56.5450   15.2900    5.5100 C.3   197  ARG197      0.2205
    156  NE        55.9530   16.1250    4.4580 N.pl3 197  ARG197     -0.0865
    157  CZ        54.9790   15.7320    3.6310 C.cat 197  ARG197      0.5346
    158  NH1       54.4530   14.5090    3.7110 N.pl3 197  ARG197      0.1354
    159  NH2       54.5110   16.5730    2.7200 N.pl3 197  ARG197      0.1354
    160  N         57.0690   21.0670    9.6910 N.3   201  ARG201     -0.1245
    161  CA        56.0590   21.8820    9.0090 C.3   201  ARG201      0.1563
    162  C         55.4960   22.9510    9.9300 C.2   201  ARG201      0.2260
    163  O         54.8850   23.8820    9.4700 O.2   201  ARG201     -0.2867
    164  CB        54.9520   21.0100    8.3900 C.3   201  ARG201      0.0307
    165  CG        55.4050   20.3090    7.0930 C.3   201  ARG201      0.0489
    166  CD        54.4860   19.1640    6.6460 C.3   201  ARG201      0.2205
    167  NE        53.1050   19.5740    6.3590 N.pl3 201  ARG201     -0.0865
    168  CZ        52.6830   20.1170    5.2160 C.cat 201  ARG201      0.5346
    169  NH1       53.5260   20.3490    4.2130 N.pl3 201  ARG201      0.1354
    170  NH2       51.3940   20.4350    5.0870 N.pl3 201  ARG201      0.1354
    171  N         59.4840   25.3550   11.2130 N.3   204  VAL204     -0.1231
    172  CA        60.0670   26.3200   10.2610 C.3   204  VAL204      0.1692
    173  C         59.5110   27.7360   10.4340 C.2   204  VAL204      0.2592
    174  O         60.2560   28.6900   10.3450 O.2   204  VAL204     -0.2718
    175  CB        59.9920   25.8670    8.7780 C.3   204  VAL204      0.0266
    176  CG1       60.7770   24.5850    8.5890 C.3   204  VAL204      0.0020
    177  CG2       58.5470   25.7030    8.2850 C.3   204  VAL204      0.0020
    178  N         58.2050   27.8460   10.6910 N.am  205  CYS205     -0.1970
    179  CA        57.5580   29.0850   11.0880 C.3   205  CYS205      0.1712
    180  C         57.9260   29.4360   12.5130 C.2   205  CYS205      0.2296
    181  O         58.0910   30.6110   12.8430 O.2   205  CYS205     -0.2864
    182  CB        56.0520   28.9180   11.0390 C.3   205  CYS205      0.0983
    183  SG        55.4520   28.3120    9.4490 S.3   205  CYS205     -0.0798
    184  N         51.7500   24.8530    7.8650 N.3   293  ALA293     -0.1245
    185  CA        51.8630   24.4810    6.4550 C.3   293  ALA293      0.1562
    186  C         50.5760   23.9460    5.8730 C.2   293  ALA293      0.2260
    187  O         50.2970   24.1860    4.7070 O.2   293  ALA293     -0.2867
    188  CB        52.9880   23.4780    6.2440 C.3   293  ALA293      0.0290
    189  N         50.3630   26.9010    3.7180 N.3   297  MET297     -0.1245
    190  CA        51.1490   26.3660    2.5870 C.3   297  MET297      0.1570
    191  C         50.5270   25.1330    1.9330 C.2   297  MET297      0.2261
    192  O         51.2270   24.1480    1.6850 O.2   297  MET297     -0.2867
    193  CB        52.5600   26.0150    3.0450 C.3   297  MET297      0.0387
    194  CG        53.3610   27.1990    3.4140 C.3   297  MET297      0.0595
    195  SD        55.0400   26.7750    3.8400 S.3   297  MET297     -0.1393
    196  CE        55.7810   26.4490    2.2440 C.3   297  MET297      0.0692
    197  N         48.6730   22.4740   -0.6540 N.3   299  TYR299     -0.1241
    198  CA        49.0870   22.0380   -1.9630 C.3   299  TYR299      0.1605
    199  C         48.2650   22.7090   -3.0610 C.2   299  TYR299      0.2264
    200  O         47.0650   22.9340   -2.9160 O.2   299  TYR299     -0.2867
    201  CB        49.0850   20.5060   -2.0670 C.3   299  TYR299      0.0534
    202  CG        50.2610   19.9080   -1.3600 C.ar  299  TYR299     -0.0201
    203  CD1       51.5510   20.0400   -1.8900 C.ar  299  TYR299     -0.0009
    204  CD2       50.1090   19.2500   -0.1440 C.ar  299  TYR299     -0.0009
    205  CE1       52.6610   19.5160   -1.2300 C.ar  299  TYR299      0.0417
    206  CE2       51.2180   18.7310    0.5320 C.ar  299  TYR299      0.0417
    207  CZ        52.4850   18.8670   -0.0190 C.ar  299  TYR299      0.1957
    208  OH        53.5760   18.3590    0.6260 O.3   299  TYR299     -0.2866
    209  N         51.4330   19.2950   -8.4240 N.3   307  LYS307     -0.1231
    210  CA        51.2130   19.9100   -7.1220 C.3   307  LYS307      0.1693
    211  C         52.4950   20.2060   -6.3660 C.2   307  LYS307      0.2592
    212  O         53.3680   19.3460   -6.2000 O.2   307  LYS307     -0.2718
    213  CB        50.1430   19.1940   -6.2540 C.3   307  LYS307      0.0285
    214  CG        50.5130   17.8930   -5.5340 C.3   307  LYS307      0.0035
    215  CD        49.4130   17.4880   -4.5220 C.3   307  LYS307      0.0206
    216  CE        49.4930   15.9880   -4.0970 C.3   307  LYS307      0.1093
    217  NZ        49.0120   14.9720   -5.1450 N.3   307  LYS307     -0.1314
    218  N         52.5860   21.4680   -5.9630 N.am  308  ILE308     -0.1966
    219  CA        53.6560   22.0090   -5.1470 C.3   308  ILE308      0.1727
    220  C         52.9860   22.6280   -3.9180 C.2   308  ILE308      0.2616
    221  O         51.7830   22.8980   -3.9370 O.2   308  ILE308     -0.2715
    222  CB        54.4520   23.1000   -5.9030 C.3   308  ILE308      0.0290
    223  CG1       53.5870   24.3320   -6.1710 C.3   308  ILE308      0.0022
    224  CG2       55.0260   22.5670   -7.2420 C.3   308  ILE308      0.0023
    225  CD1       54.3810   25.6050   -6.2560 C.3   308  ILE308      0.0001
    226  N         53.7460   22.8340   -2.8440 N.am  309  SER309     -0.1950
    227  CA        53.2480   23.5650   -1.6700 C.3   309  SER309      0.1924
    228  C         53.2680   25.0470   -2.0020 C.2   309  SER309      0.2314
    229  O         54.2790   25.5560   -2.5030 O.2   309  SER309     -0.2863
    230  CB        54.1380   23.3120   -0.4540 C.3   309  SER309      0.2116
    231  OG        54.1210   21.9440   -0.0480 O.3   309  SER309     -0.2180
    232  N         53.8460   28.8250   -1.6190 N.3   311  HIS311     -0.1241
    233  CA        54.8350   29.5680   -0.8420 C.3   311  HIS311      0.1621
    234  C         54.3640   31.0130   -0.7050 C.2   311  HIS311      0.2264
    235  O         55.1500   31.9320   -0.4670 O.2   311  HIS311     -0.2867
    236  CB        56.2370   29.4500   -1.4500 C.3   311  HIS311      0.0745
    237  CG        56.9610   28.1910   -1.0710 C.ar  311  HIS311      0.0817
    238  ND1       56.5250   26.9360   -1.4390 N.ar  311  HIS311     -0.2268
    239  CD2       58.1020   27.9980   -0.3620 C.ar  311  HIS311      0.1154
    240  CE1       57.3630   26.0260   -0.9740 C.ar  311  HIS311      0.1986
    241  NE2       58.3270   26.6450   -0.3130 N.ar  311  HIS311     -0.2212
    242  N         52.5250   32.9010    1.7910 N.3   313  TRP313     -0.1241
    243  CA        52.2030   33.0410    3.2120 C.3   313  TRP313      0.1605
    244  C         51.4550   34.3560    3.4440 C.2   313  TRP313      0.2264
    245  O         52.0210   35.4520    3.3930 O.2   313  TRP313     -0.2867
    246  CB        53.4770   33.0380    4.0490 C.3   313  TRP313      0.0550
    247  CG        54.4330   31.9350    3.7430 C.ar  313  TRP313      0.0003
    248  CD1       54.3230   30.6260    4.1170 C.ar  313  TRP313      0.0946
    249  CD2       55.6670   32.0440    3.0300 C.ar  313  TRP313      0.0152
    250  NE1       55.4000   29.9010    3.6670 N.ar  313  TRP313     -0.2442
    251  CE2       56.2480   30.7450    3.0010 C.ar  313  TRP313      0.0810
    252  CE3       56.3420   33.1050    2.4090 C.ar  313  TRP313      0.0012
    253  CZ2       57.4780   30.4800    2.3680 C.ar  313  TRP313      0.0191
    254  CZ3       57.5550   32.8470    1.7900 C.ar  313  TRP313      0.0001
    255  CH2       58.1130   31.5380    1.7700 C.ar  313  TRP313      0.0015
@<TRIPOS>BOND
     1    38    39    1
     2    40    39    1
     3    40    41    2
     4    39    42    1
     5   209   210    1
     6    65    67   ar
     7    65    63   ar
     8    30    29    2
     9    62    63    1
    10    62    59    1
    11    67    68   ar
    12    29    28    1
    13   224   222    1
    14    63    64   ar
    15    49    50    1
    16   210   211    1
    17   210   213    1
    18    42    43    1
    19    60    59    1
    20    60    61    2
    21    45    43   ar
    22    45    47   ar
    23    43    44   ar
    24    56    55    2
    25    59    58    1
    26    68    69    1
    27    68    66   ar
    28    58    51   am
    29    47    48   ar
    30   211   212    2
    31   211   218   am
    32    27    28    1
    33    64    66   ar
    34   225   223    1
    35   213   214    1
    36    28    31    1
    37   223   222    1
    38    44    46   ar
    39   218   219    1
    40    48    46   ar
    41   222   219    1
    42    22    24   ar
    43    22    20   ar
    44    24    25   ar
    45    50    51    1
    46    50    53    1
    47    51    52    2
    48    55    57   am
    49    55    54    1
    50   214   215    1
    51   219   220    1
    52   217   216    1
    53    31    32    1
    54    53    54    1
    55    16    17    1
    56    16    19    1
    57    16    15    1
    58    17    18    2
    59    19    20    1
    60    20    21   ar
    61    25    26    1
    62    25    23   ar
    63    12    13    1
    64    12     9    1
    65   215   216    1
    66    13    14    1
    67    70    71    1
    68   221   220    2
    69   220   226   am
    70    32    33   ar
    71    32    34   ar
    72    72    71    1
    73    72    73    2
    74     9    10    1
    75     9     8    1
    76    21    23   ar
    77    77    79   ar
    78    77    75   ar
    79    71    74    1
    80    74    75    1
    81    33    35   ar
    82    10    11    2
    83    34    36   ar
    84   199   200    2
    85   199   198    1
    86   226   227    1
    87    14     8    1
    88    79    80   ar
    89   138   139    1
    90   138   137    1
    91    75    76   ar
    92   229   228    2
    93     8     3   am
    94   140   139    1
    95   201   198    1
    96   201   202    1
    97    35    37   ar
    98   228   227    1
    99   109   108    1
   100    36    37   ar
   101   198   197    1
   102   203   202   ar
   103   203   205   ar
   104   227   230    1
   105   232   233    1
   106   137   134    1
   107   236   237    1
   108   236   233    1
   109   238   237   ar
   110   238   240   ar
   111   202   204   ar
   112     3     4    2
   113     3     2    1
   114    80    81    1
   115    80    78   ar
   116   205   207   ar
   117    76    78   ar
   118   237   239   ar
   119   240   241   ar
   120   233   234    1
   121   234   235    2
   122   108   105    1
   123   230   231    1
   124   133   134    1
   125   239   241   ar
   126   134   135    1
   127     2     1    1
   128     2     5    1
   129   204   206   ar
   130   207   206   ar
   131   207   208    1
   132   104   105    1
   133   104   102   am
   134   105   106    1
   135     5     7    1
   136     5     6    1
   137   135   136    2
   138   132   131   ar
   139   132   130   ar
   140   131   129   ar
   141   130   128   ar
   142   129   128   ar
   143   128   127    1
   144   101   102    1
   145   101   100    1
   146   127   124    1
   147   192   191    2
   148   106   107    2
   149   255   254   ar
   150   255   253   ar
   151   102   103    2
   152   254   252   ar
   153   242   243    1
   154   191   190    1
   155   196   195    1
   156   253   251   ar
   157   252   249   ar
   158   190   193    1
   159   190   189    1
   160   100    94   am
   161    84    85    2
   162    84    83    1
   163   159   157    1
   164   126   125    2
   165   251   249   ar
   166   251   250   ar
   167   249   247   ar
   168   193   194    1
   169   125   124    1
   170   124   123    1
   171    82    83    1
   172   243   244    1
   173   243   246    1
   174    95    94    2
   175   245   244    2
   176    94    93    1
   177   194   195    1
   178    86    83    1
   179    86    87    1
   180   157   158    1
   181   157   156    2
   182   250   248   ar
   183   247   246    1
   184   247   248   ar
   185   123   119   am
   186    92    93    1
   187   169   168    1
   188   156   155    1
   189    93    96    1
   190   110   111    1
   191    88    87   ar
   192    88    90   ar
   193   141   142    1
   194    87    89   ar
   195   187   186    2
   196   148   146    1
   197   119   120    2
   198   119   118    1
   199   170   168    1
   200   168   167    2
   201   115   114    1
   202    96    98    1
   203    96    97    1
   204   117   118    1
   205   117   112   am
   206   146   145    1
   207   146   147    1
   208   121   118    1
   209   121   122    1
   210   155   154    1
   211   142   145    1
   212   142   143    1
   213    90    91   ar
   214   186   185    1
   215   111   114    1
   216   111   112    1
   217    89    91   ar
   218   114   116    1
   219   188   185    1
   220   112   113    2
   221   167   166    1
   222   185   184    1
   223   154   153    1
   224    97    99    1
   225   166   165    1
   226   143   144    2
   227   165   164    1
   228   153   150    1
   229   177   175    1
   230   164   161    1
   231   176   175    1
   232   175   172    1
   233   150   151    1
   234   150   149    1
   235   161   160    1
   236   161   162    1
   237   152   151    2
   238   183   182    1
   239   163   162    2
   240   172   173    1
   241   172   171    1
   242   174   173    2
   243   173   178   am
   244   178   179    1
   245   182   179    1
   246   179   180    1
   247   180   181    2
