@<TRIPOS>MOLECULE
tmp/2vr0D06.pdb
 103 97 0 0 0
SMALL
GASTEIGER

@<TRIPOS>ATOM
      1  N         47.9550  -10.8300    6.7410 N.3     9  LEU9       -0.1245
      2  CA        48.1220  -10.8130    8.1800 C.3     9  LEU9        0.1561
      3  C         49.3870  -11.5840    8.5370 C.2     9  LEU9        0.2260
      4  O         49.5760  -12.7330    8.1150 O.2     9  LEU9       -0.2867
      5  CB        46.9100  -11.4390    8.8760 C.3     9  LEU9        0.0270
      6  CG        46.3750  -10.9020   10.2180 C.3     9  LEU9        0.0019
      7  CD1       45.7060  -12.0270   10.9600 C.3     9  LEU9        0.0001
      8  CD2       47.4200  -10.2460   11.1240 C.3     9  LEU9        0.0001
      9  N         50.3650  -15.5650   28.7360 N.3   200  ARG200     -0.1245
     10  CA        49.3870  -14.5070   28.9380 C.3   200  ARG200      0.1563
     11  C         48.7530  -14.6000   30.3250 C.2   200  ARG200      0.2260
     12  O         47.9820  -13.7350   30.7180 O.2   200  ARG200     -0.2867
     13  CB        48.3410  -14.5180   27.8200 C.3   200  ARG200      0.0307
     14  CG        48.8210  -13.9390   26.5000 C.3   200  ARG200      0.0489
     15  CD        47.8940  -14.3060   25.3630 C.3   200  ARG200      0.2205
     16  NE        46.5400  -13.7780   25.5360 N.pl3 200  ARG200     -0.0865
     17  CZ        46.1660  -12.5310   25.2370 C.cat 200  ARG200      0.5346
     18  NH1       47.0410  -11.6600   24.7470 N.pl3 200  ARG200      0.1354
     19  NH2       44.9090  -12.1440   25.4370 N.pl3 200  ARG200      0.1354
     20  N         43.4680  -12.0880   28.5200 N.3   293  ASP293     -0.1239
     21  CA        42.2170  -12.1240   27.7740 C.3   293  ASP293      0.1674
     22  C         41.2130  -11.1110   28.3050 C.2   293  ASP293      0.2266
     23  O         40.4320  -10.5580   27.5330 O.2   293  ASP293     -0.2867
     24  CB        41.5980  -13.5220   27.8200 C.3   293  ASP293      0.1410
     25  CG        42.3390  -14.5340   26.9520 C.2   293  ASP293      0.3668
     26  OD1       43.1690  -14.1290   26.1020 O.co2 293  ASP293     -0.2456
     27  OD2       42.0860  -15.7500   27.1170 O.co2 293  ASP293     -0.2456
     28  N         42.6850   -6.8870   27.1660 N.3   297  SER297     -0.1202
     29  CA        41.8950   -7.1890   25.9930 C.3   297  SER297      0.2020
     30  C         42.2690   -6.2620   24.8480 C.2   297  SER297      0.2619
     31  O         42.7680   -5.1530   25.0510 O.2   297  SER297     -0.2717
     32  CB        40.4120   -7.0710   26.2970 C.3   297  SER297      0.2103
     33  OG        40.0890   -5.7470   26.6690 O.3   297  SER297     -0.2182
     34  N         42.0460   -6.7320   23.6350 N.am  298  TYR298     -0.1961
     35  CA        42.2810   -5.8910   22.5010 C.3   298  TYR298      0.1771
     36  C         41.2800   -4.7280   22.5260 C.2   298  TYR298      0.2620
     37  O         40.1130   -4.8790   22.9160 O.2   298  TYR298     -0.2715
     38  CB        42.2310   -6.7070   21.2110 C.3   298  TYR298      0.0574
     39  CG        43.2770   -7.8110   21.1470 C.ar  298  TYR298     -0.0198
     40  CD1       44.6150   -7.5700   21.4810 C.ar  298  TYR298     -0.0009
     41  CD2       42.9340   -9.0890   20.7350 C.ar  298  TYR298     -0.0009
     42  CE1       45.5750   -8.5910   21.4170 C.ar  298  TYR298      0.0417
     43  CE2       43.8820  -10.1120   20.6690 C.ar  298  TYR298      0.0417
     44  CZ        45.1980   -9.8650   21.0080 C.ar  298  TYR298      0.1957
     45  OH        46.1190  -10.9030   20.9370 O.3   298  TYR298     -0.2866
     46  N         41.7770   -3.5540   22.1590 N.am  299  THR299     -0.1937
     47  CA        40.9680   -2.3410   22.0540 C.3   299  THR299      0.2028
     48  C         41.3610   -1.6150   20.7660 C.2   299  THR299      0.2642
     49  O         42.5440   -1.4860   20.4400 O.2   299  THR299     -0.2714
     50  CB        41.0740   -1.4360   23.3400 C.3   299  THR299      0.1808
     51  OG1       40.4020   -0.1960   23.1250 O.3   299  THR299     -0.2208
     52  CG2       42.5100   -1.1350   23.7080 C.3   299  THR299      0.0379
     53  N         40.3530   -1.1990   20.0090 N.am  300  ARG300     -0.1977
     54  CA        40.5800   -0.5660   18.7220 C.3   300  ARG300      0.1597
     55  C         40.5990    0.9320   18.9330 C.2   300  ARG300      0.2287
     56  O         39.6390    1.6290   18.6190 O.2   300  ARG300     -0.2864
     57  CB        39.5290   -1.0150   17.7000 C.3   300  ARG300      0.0334
     58  CG        39.4570   -2.5440   17.5690 C.3   300  ARG300      0.0492
     59  CD        38.5290   -3.0140   16.4970 C.3   300  ARG300      0.2205
     60  NE        37.1510   -2.7430   16.8500 N.pl3 300  ARG300     -0.0865
     61  CZ        36.2370   -2.2880   16.0010 C.cat 300  ARG300      0.5346
     62  NH1       36.5430   -2.0260   14.7280 N.pl3 300  ARG300      0.1354
     63  NH2       35.0060   -2.0740   16.4430 N.pl3 300  ARG300      0.1354
     64  N         43.4860   -2.9310   16.2890 N.3   306  LYS306     -0.1245
     65  CA        43.7020   -3.4590   17.6150 C.3   306  LYS306      0.1561
     66  C         45.0980   -3.0880   18.0930 C.2   306  LYS306      0.2260
     67  O         46.0550   -3.1520   17.3150 O.2   306  LYS306     -0.2867
     68  CB        43.5900   -4.9830   17.5950 C.3   306  LYS306      0.0271
     69  CG        42.1840   -5.5450   17.6020 C.3   306  LYS306      0.0035
     70  CD        42.1780   -7.0610   17.3860 C.3   306  LYS306      0.0206
     71  CE        40.8660   -7.6700   17.8710 C.3   306  LYS306      0.1093
     72  NZ        40.6890   -9.1300   17.5760 N.3   306  LYS306     -0.1314
     73  N         33.3930   -4.3890   27.1040 N.3   322  ARG322     -0.1231
     74  CA        33.8550   -4.8330   25.8030 C.3   322  ARG322      0.1694
     75  C         34.8260   -6.0010   25.8350 C.2   322  ARG322      0.2591
     76  O         34.8510   -6.8140   24.8980 O.2   322  ARG322     -0.2718
     77  CB        34.5000   -3.6900   25.0570 C.3   322  ARG322      0.0321
     78  CG        34.1410   -3.7770   23.6050 C.3   322  ARG322      0.0489
     79  CD        35.1160   -3.1280   22.6860 C.3   322  ARG322      0.2205
     80  NE        35.1580   -1.6550   22.4900 N.pl3 322  ARG322     -0.0865
     81  CZ        34.6920   -0.6620   23.2730 C.cat 322  ARG322      0.5346
     82  NH1       34.0400   -0.8620   24.4310 N.pl3 322  ARG322      0.1354
     83  NH2       34.8950    0.5910   22.8520 N.pl3 322  ARG322      0.1354
     84  N         35.6220   -6.0740   26.9070 N.am  323  ALA323     -0.1980
     85  CA        36.5510   -7.1790   27.1010 C.3   323  ALA323      0.1597
     86  C         35.8260   -8.5220   27.1020 C.2   323  ALA323      0.2287
     87  O         36.4000   -9.5380   26.6880 O.2   323  ALA323     -0.2864
     88  CB        37.3130   -7.0110   28.3780 C.3   323  ALA323      0.0319
     89  N         33.0550  -10.2920   23.1850 N.3   326  GLN326     -0.1231
     90  CA        33.2120  -11.1030   21.9910 C.3   326  GLN326      0.1698
     91  C         32.8140  -12.5250   22.3570 C.2   326  GLN326      0.2592
     92  O         32.0610  -13.1740   21.6400 O.2   326  GLN326     -0.2718
     93  CB        34.6290  -11.0260   21.4370 C.3   326  GLN326      0.0381
     94  CG        35.1640   -9.5970   21.2680 C.3   326  GLN326      0.0905
     95  CD        34.2820   -8.6540   20.4100 C.2   326  GLN326      0.2608
     96  OE1       33.7920   -9.0220   19.3330 O.2   326  GLN326     -0.2717
     97  NE2       34.1080   -7.4200   20.8930 N.am  326  GLN326     -0.0878
     98  N         33.2930  -12.9800   23.5080 N.am  327  CYS327     -0.1970
     99  CA        33.0180  -14.3210   23.9740 C.3   327  CYS327      0.1712
    100  C         31.6000  -14.4620   24.4530 C.2   327  CYS327      0.2296
    101  O         31.0150  -15.5140   24.3130 O.2   327  CYS327     -0.2864
    102  CB        33.9580  -14.6890   25.0980 C.3   327  CYS327      0.0983
    103  SG        35.5610  -15.2340   24.5280 S.3   327  CYS327     -0.0798
@<TRIPOS>BOND
     1     1     2    1
     2     4     3    2
     3     2     3    1
     4     2     5    1
     5     5     6    1
     6     6     7    1
     7     6     8    1
     8    62    61    1
     9    61    63    1
    10    61    60    2
    11    64    65    1
    12    59    60    1
    13    59    58    1
    14    67    66    2
    15    70    69    1
    16    70    71    1
    17    58    57    1
    18    72    71    1
    19    68    69    1
    20    68    65    1
    21    65    66    1
    22    57    54    1
    23    56    55    2
    24    54    55    1
    25    54    53    1
    26    96    95    2
    27    53    48   am
    28    95    97   am
    29    95    94    1
    30    49    48    2
    31    43    41   ar
    32    43    44   ar
    33    41    39   ar
    34    48    47    1
    35    45    44    1
    36    44    42   ar
    37    39    38    1
    38    39    40   ar
    39    38    35    1
    40    94    93    1
    41    42    40   ar
    42    93    90    1
    43    92    91    2
    44    90    91    1
    45    90    89    1
    46    47    46    1
    47    47    50    1
    48    46    36   am
    49    91    98   am
    50    80    79    1
    51    80    81    2
    52    35    36    1
    53    35    34    1
    54    36    37    2
    55    79    78    1
    56    83    81    1
    57    51    50    1
    58    81    82    1
    59    50    52    1
    60    98    99    1
    61    78    77    1
    62    34    30   am
    63    99   100    1
    64    99   102    1
    65   101   100    2
    66   103   102    1
    67    18    17    1
    68    30    31    2
    69    30    29    1
    70    76    75    2
    71    77    74    1
    72    17    19    1
    73    17    16    2
    74    15    16    1
    75    15    14    1
    76    74    75    1
    77    74    73    1
    78    75    84   am
    79    29    32    1
    80    29    28    1
    81    26    25   ar
    82    32    33    1
    83    14    13    1
    84    87    86    2
    85    84    85    1
    86    25    27   ar
    87    25    24    1
    88    85    86    1
    89    85    88    1
    90    23    22    2
    91    21    24    1
    92    21    22    1
    93    21    20    1
    94    13    10    1
    95     9    10    1
    96    10    11    1
    97    11    12    2
