@<TRIPOS>MOLECULE
tmp/2vr4A00.pdb
 187 190 0 0 0
SMALL
GASTEIGER

@<TRIPOS>ATOM
      1  N         36.3600   51.9810    0.0940 N.3   151  ASN151     -0.1240
      2  CA        35.3780   52.6180    0.9610 C.3   151  ASN151      0.1653
      3  C         35.9790   53.3780    2.1480 C.2   151  ASN151      0.2266
      4  O         35.2690   54.1030    2.8340 O.2   151  ASN151     -0.2867
      5  CB        34.2860   51.6160    1.3930 C.3   151  ASN151      0.1155
      6  CG        33.4120   51.1390    0.2060 C.2   151  ASN151      0.2627
      7  OD1       32.5720   51.8850   -0.2610 O.2   151  ASN151     -0.2716
      8  ND2       33.6210   49.9120   -0.2690 N.am  151  ASN151     -0.0877
      9  N         31.8300   54.9930    3.8350 N.3   171  TRP171     -0.1227
     10  CA        31.3590   53.9180    2.9600 C.3   171  TRP171      0.1737
     11  C         30.5520   54.5630    1.7970 C.2   171  TRP171      0.2595
     12  O         30.3870   55.7780    1.7770 O.2   171  TRP171     -0.2718
     13  CB        30.4840   52.9040    3.7510 C.3   171  TRP171      0.0564
     14  CG        30.5910   51.5220    3.1370 C.ar  171  TRP171      0.0003
     15  CD1       29.7100   50.9390    2.2640 C.ar  171  TRP171      0.0946
     16  CD2       31.6440   50.5580    3.3420 C.ar  171  TRP171      0.0152
     17  NE1       30.1480   49.6970    1.9030 N.ar  171  TRP171     -0.2442
     18  CE2       31.3330   49.4330    2.5540 C.ar  171  TRP171      0.0810
     19  CE3       32.7930   50.5120    4.1790 C.ar  171  TRP171      0.0012
     20  CZ2       32.1480   48.2860    2.5160 C.ar  171  TRP171      0.0191
     21  CZ3       33.6090   49.3910    4.1310 C.ar  171  TRP171      0.0001
     22  CH2       33.2880   48.2860    3.3020 C.ar  171  TRP171      0.0015
     23  N         30.0180   53.7720    0.8690 N.am  172  ASP172     -0.1960
     24  CA        29.2930   54.3880   -0.2740 C.3   172  ASP172      0.1840
     25  C         27.8490   54.9240    0.0540 C.2   172  ASP172      0.2622
     26  O         27.1910   55.5120   -0.8290 O.2   172  ASP172     -0.2715
     27  CB        29.3990   53.5550   -1.5410 C.3   172  ASP172      0.1450
     28  CG        28.7880   52.1330   -1.3900 C.2   172  ASP172      0.3671
     29  OD1       28.0020   51.9020   -0.4300 O.co2 172  ASP172     -0.2456
     30  OD2       29.0870   51.2670   -2.2260 O.co2 172  ASP172     -0.2456
     31  N         27.4150   54.8210    1.3120 N.am  173  TRP173     -0.1974
     32  CA        26.1740   55.4960    1.8160 C.3   173  TRP173      0.1640
     33  C         26.4450   56.1880    3.1230 C.2   173  TRP173      0.2290
     34  O         25.5170   56.5120    3.8870 O.2   173  TRP173     -0.2864
     35  CB        25.0580   54.4470    2.0300 C.3   173  TRP173      0.0576
     36  CG        25.6210   53.1270    2.5410 C.ar  173  TRP173      0.0006
     37  CD1       25.7770   51.9970    1.8490 C.ar  173  TRP173      0.0946
     38  CD2       26.1840   52.8760    3.8650 C.ar  173  TRP173      0.0152
     39  NE1       26.3720   51.0160    2.6460 N.ar  173  TRP173     -0.2442
     40  CE2       26.6080   51.5380    3.8850 C.ar  173  TRP173      0.0810
     41  CE3       26.3010   53.6460    5.0360 C.ar  173  TRP173      0.0012
     42  CZ2       27.1810   50.9390    5.0210 C.ar  173  TRP173      0.0191
     43  CZ3       26.8920   53.0440    6.1850 C.ar  173  TRP173      0.0001
     44  CH2       27.3300   51.7120    6.1420 C.ar  173  TRP173      0.0015
     45  N         25.4480   42.7990    7.7260 N.3   368  TRP368     -0.1241
     46  CA        26.5370   42.8890    6.7510 C.3   368  TRP368      0.1605
     47  C         27.8850   43.2670    7.3930 C.2   368  TRP368      0.2264
     48  O         27.9500   44.0420    8.3290 O.2   368  TRP368     -0.2867
     49  CB        26.1250   43.8730    5.6160 C.3   368  TRP368      0.0550
     50  CG        27.1680   44.5490    4.7840 C.ar  368  TRP368      0.0003
     51  CD1       27.6050   44.1760    3.5370 C.ar  368  TRP368      0.0946
     52  CD2       27.8010   45.7880    5.0830 C.ar  368  TRP368      0.0152
     53  NE1       28.5510   45.0840    3.0780 N.ar  368  TRP368     -0.2442
     54  CE2       28.6410   46.1120    3.9800 C.ar  368  TRP368      0.0810
     55  CE3       27.7240   46.6790    6.1630 C.ar  368  TRP368      0.0012
     56  CZ2       29.4260   47.2400    3.9600 C.ar  368  TRP368      0.0191
     57  CZ3       28.5140   47.8140    6.1270 C.ar  368  TRP368      0.0001
     58  CH2       29.3450   48.0910    5.0250 C.ar  368  TRP368      0.0015
     59  N         34.9770   43.7870    1.6330 N.3   397  CYS397     -0.1235
     60  CA        35.4360   44.3290    0.3170 C.3   397  CYS397      0.1677
     61  C         36.9300   44.3240    0.0200 C.2   397  CYS397      0.2270
     62  O         37.3460   44.1630   -1.1400 O.2   397  CYS397     -0.2867
     63  CB        34.8390   45.7030    0.0500 C.3   397  CYS397      0.0956
     64  SG        33.0180   45.7060    0.0780 S.3   397  CYS397     -0.0801
     65  N         32.1740   40.0060    3.4600 N.3   434  ASN434     -0.1225
     66  CA        31.4640   40.5240    2.2750 C.3   434  ASN434      0.1785
     67  C         32.4190   40.7870    1.1160 C.2   434  ASN434      0.2597
     68  O         33.2900   41.6830    1.2190 O.2   434  ASN434     -0.2718
     69  CB        30.7550   41.8460    2.6040 C.3   434  ASN434      0.1169
     70  CG        29.9790   42.3840    1.4250 C.2   434  ASN434      0.2627
     71  OD1       28.9650   41.8040    1.0630 O.2   434  ASN434     -0.2716
     72  ND2       30.4650   43.4920    0.8020 N.am  434  ASN434     -0.0877
     73  N         32.2960   39.9670    0.0560 N.am  435  GLU435     -0.1979
     74  CA        32.8680   40.2750   -1.2810 C.3   435  GLU435      0.1602
     75  C         34.3890   40.2890   -1.3760 C.2   435  GLU435      0.2287
     76  O         34.9360   40.6950   -2.4020 O.2   435  GLU435     -0.2864
     77  CB        32.2640   41.5860   -1.8270 C.3   435  GLU435      0.0415
     78  CG        30.8290   41.4300   -2.2200 C.3   435  GLU435      0.1163
     79  CD        30.1750   42.7550   -2.6890 C.2   435  GLU435      0.3649
     80  OE1       30.7930   43.8410   -2.6230 O.co2 435  GLU435     -0.2457
     81  OE2       29.0030   42.6920   -3.0620 O.co2 435  GLU435     -0.2457
     82  N         35.6010   37.8180   -4.2710 N.3   438  GLU438     -0.1245
     83  CA        35.2500   38.5010   -5.5120 C.3   438  GLU438      0.1567
     84  C         36.2070   39.6370   -5.8120 C.2   438  GLU438      0.2260
     85  O         36.6890   39.7760   -6.9570 O.2   438  GLU438     -0.2867
     86  CB        33.8450   39.0890   -5.3780 C.3   438  GLU438      0.0388
     87  CG        33.4580   39.8530   -6.6340 C.3   438  GLU438      0.1160
     88  CD        32.0050   40.2240   -6.6570 C.2   438  GLU438      0.3649
     89  OE1       31.1740   39.3780   -7.0330 O.co2 438  GLU438     -0.2457
     90  OE2       31.7090   41.3890   -6.3280 O.co2 438  GLU438     -0.2457
     91  N         38.4010   42.4560   -9.1530 N.3   443  TRP443     -0.1241
     92  CA        38.2240   43.9190   -8.9630 C.3   443  TRP443      0.1605
     93  C         39.2600   44.9310   -9.5260 C.2   443  TRP443      0.2264
     94  O         39.0350   46.1410   -9.4130 O.2   443  TRP443     -0.2867
     95  CB        37.7830   44.2830   -7.5140 C.3   443  TRP443      0.0550
     96  CG        36.2940   44.0340   -7.2380 C.ar  443  TRP443      0.0003
     97  CD1       35.3880   43.4490   -8.0870 C.ar  443  TRP443      0.0946
     98  CD2       35.5630   44.3280   -6.0210 C.ar  443  TRP443      0.0152
     99  NE1       34.1390   43.3830   -7.4940 N.ar  443  TRP443     -0.2442
    100  CE2       34.2160   43.9040   -6.2270 C.ar  443  TRP443      0.0810
    101  CE3       35.9110   44.9080   -4.7830 C.ar  443  TRP443      0.0012
    102  CZ2       33.2160   44.0450   -5.2360 C.ar  443  TRP443      0.0191
    103  CZ3       34.9150   45.0480   -3.7970 C.ar  443  TRP443      0.0001
    104  CH2       33.5840   44.6180   -4.0340 C.ar  443  TRP443      0.0015
    105  N         28.1640   38.5370  -10.7800 N.3   492  TRP492     -0.1241
    106  CA        27.0230   39.0540  -11.5470 C.3   492  TRP492      0.1605
    107  C         27.3150   39.2010  -13.0430 C.2   492  TRP492      0.2264
    108  O         26.3660   39.2730  -13.8390 O.2   492  TRP492     -0.2867
    109  CB        26.4370   40.3550  -10.9920 C.3   492  TRP492      0.0550
    110  CG        27.3070   41.5860  -11.0190 C.ar  492  TRP492      0.0003
    111  CD1       28.0900   42.0490  -10.0190 C.ar  492  TRP492      0.0946
    112  CD2       27.4330   42.5290  -12.1070 C.ar  492  TRP492      0.0152
    113  NE1       28.7150   43.2210  -10.4090 N.ar  492  TRP492     -0.2442
    114  CE2       28.3220   43.5370  -11.6850 C.ar  492  TRP492      0.0810
    115  CE3       26.8660   42.6150  -13.3890 C.ar  492  TRP492      0.0012
    116  CZ2       28.6460   44.6480  -12.4860 C.ar  492  TRP492      0.0191
    117  CZ3       27.2080   43.7100  -14.2030 C.ar  492  TRP492      0.0001
    118  CH2       28.0980   44.7070  -13.7400 C.ar  492  TRP492      0.0015
    119  N         24.4850   42.7870   -8.9150 N.3   506  TRP506     -0.1241
    120  CA        24.6270   44.2070   -9.1010 C.3   506  TRP506      0.1605
    121  C         24.6060   44.6070  -10.5980 C.2   506  TRP506      0.2264
    122  O         25.0630   45.6660  -10.9690 O.2   506  TRP506     -0.2867
    123  CB        25.8340   44.7660   -8.3100 C.3   506  TRP506      0.0550
    124  CG        25.5100   44.7960   -6.8320 C.ar  506  TRP506      0.0003
    125  CD1       25.9160   43.9110   -5.8760 C.ar  506  TRP506      0.0946
    126  CD2       24.6930   45.7560   -6.1850 C.ar  506  TRP506      0.0152
    127  NE1       25.3780   44.2710   -4.6300 N.ar  506  TRP506     -0.2442
    128  CE2       24.6170   45.3940   -4.8020 C.ar  506  TRP506      0.0810
    129  CE3       23.9560   46.8710   -6.6370 C.ar  506  TRP506      0.0012
    130  CZ2       23.8990   46.1520   -3.8640 C.ar  506  TRP506      0.0191
    131  CZ3       23.2410   47.6380   -5.7110 C.ar  506  TRP506      0.0001
    132  CH2       23.2120   47.2690   -4.3260 C.ar  506  TRP506      0.0015
    133  N         24.7340   48.9290  -10.7970 N.3   510  TYR510     -0.1241
    134  CA        26.1280   49.0150  -11.3140 C.3   510  TYR510      0.1605
    135  C         26.2710   48.6100  -12.7780 C.2   510  TYR510      0.2264
    136  O         27.0080   49.2700  -13.5300 O.2   510  TYR510     -0.2867
    137  CB        27.1420   48.2130  -10.4820 C.3   510  TYR510      0.0534
    138  CG        27.3640   48.8500   -9.1750 C.ar  510  TYR510     -0.0201
    139  CD1       28.0320   50.0670   -9.0970 C.ar  510  TYR510     -0.0009
    140  CD2       26.8330   48.3020   -8.0070 C.ar  510  TYR510     -0.0009
    141  CE1       28.1920   50.7080   -7.8950 C.ar  510  TYR510      0.0417
    142  CE2       27.0030   48.9630   -6.7510 C.ar  510  TYR510      0.0417
    143  CZ        27.6760   50.1560   -6.7280 C.ar  510  TYR510      0.1957
    144  OH        27.8420   50.8500   -5.5390 O.3   510  TYR510     -0.2866
    145  N         22.1910   39.9350   -2.1480 N.3   528  GLU528     -0.1245
    146  CA        22.1410   41.3930   -2.3470 C.3   528  GLU528      0.1567
    147  C         21.6190   41.6820   -3.7570 C.2   528  GLU528      0.2260
    148  O         22.0560   41.0260   -4.6980 O.2   528  GLU528     -0.2867
    149  CB        23.5650   42.0170   -2.3450 C.3   528  GLU528      0.0388
    150  CG        24.3500   41.8950   -0.9960 C.3   528  GLU528      0.1160
    151  CD        25.5420   42.8600   -0.9410 C.2   528  GLU528      0.3649
    152  OE1       25.7510   43.6090   -1.9430 O.co2 528  GLU528     -0.2457
    153  OE2       26.2660   42.8590    0.0810 O.co2 528  GLU528     -0.2457
    154  N         30.0570   54.7590   -6.8960 N.3   563  SER563     -0.1217
    155  CA        30.9450   55.0680   -8.0150 C.3   563  SER563      0.1889
    156  C         30.1560   55.3960   -9.2770 C.2   563  SER563      0.2288
    157  O         30.7150   55.8770  -10.2660 O.2   563  SER563     -0.2866
    158  CB        31.8970   53.8970   -8.2870 C.3   563  SER563      0.2089
    159  OG        31.1950   52.8050   -8.8570 O.3   563  SER563     -0.2183
    160  N         19.4970   44.9060   -0.8780 N.3   618  TRP618     -0.1241
    161  CA        20.4230   45.9420   -0.4050 C.3   618  TRP618      0.1605
    162  C         19.6700   47.3000   -0.5370 C.2   618  TRP618      0.2264
    163  O         19.4220   47.6960   -1.6720 O.2   618  TRP618     -0.2867
    164  CB        21.7450   45.9440   -1.2250 C.3   618  TRP618      0.0550
    165  CG        22.6560   46.8850   -0.5550 C.ar  618  TRP618      0.0003
    166  CD1       22.7180   48.2660   -0.6920 C.ar  618  TRP618      0.0946
    167  CD2       23.4730   46.5640    0.5790 C.ar  618  TRP618      0.0152
    168  NE1       23.6090   48.8020    0.2510 N.ar  618  TRP618     -0.2442
    169  CE2       24.0800   47.7610    1.0290 C.ar  618  TRP618      0.0810
    170  CE3       23.7940   45.3460    1.2230 C.ar  618  TRP618      0.0012
    171  CZ2       24.9580   47.7870    2.1490 C.ar  618  TRP618      0.0191
    172  CZ3       24.6910   45.3760    2.2980 C.ar  618  TRP618      0.0001
    173  CH2       25.2430   46.5790    2.7580 C.ar  618  TRP618      0.0015
    174  N         20.5050   53.1920   -1.1290 N.3   629  TRP629     -0.1241
    175  CA        19.6820   52.0630   -1.5410 C.3   629  TRP629      0.1605
    176  C         18.6500   51.6510   -0.4970 C.2   629  TRP629      0.2264
    177  O         17.9830   50.6480   -0.6880 O.2   629  TRP629     -0.2867
    178  CB        20.5970   50.8500   -1.7970 C.3   629  TRP629      0.0550
    179  CG        21.6560   51.1140   -2.8590 C.ar  629  TRP629      0.0003
    180  CD1       21.6210   50.7130   -4.1420 C.ar  629  TRP629      0.0946
    181  CD2       22.8930   51.8160   -2.6820 C.ar  629  TRP629      0.0152
    182  NE1       22.7620   51.1440   -4.8190 N.ar  629  TRP629     -0.2442
    183  CE2       23.5430   51.8400   -3.9360 C.ar  629  TRP629      0.0810
    184  CE3       23.5100   52.4490   -1.5800 C.ar  629  TRP629      0.0012
    185  CZ2       24.8120   52.4520   -4.1300 C.ar  629  TRP629      0.0191
    186  CZ3       24.7590   53.0840   -1.7720 C.ar  629  TRP629      0.0001
    187  CH2       25.3890   53.0690   -3.0480 C.ar  629  TRP629      0.0015
@<TRIPOS>BOND
     1   117   118   ar
     2   117   115   ar
     3   108   107    2
     4   118   116   ar
     5   136   135    2
     6   115   112   ar
     7   107   106    1
     8   135   134    1
     9   116   114   ar
    10   112   114   ar
    11   112   110   ar
    12   114   113   ar
    13   106   109    1
    14   106   105    1
    15   134   133    1
    16   134   137    1
    17   110   109    1
    18   110   111   ar
    19   122   121    2
    20   121   120    1
    21   137   138    1
    22   113   111   ar
    23   157   156    2
    24    93    94    2
    25    93    92    1
    26   156   155    1
    27   138   139   ar
    28   138   140   ar
    29    91    92    1
    30   120   119    1
    31   120   123    1
    32   139   141   ar
    33    92    95    1
    34   159   158    1
    35   123   124    1
    36   158   155    1
    37    97    99   ar
    38    97    96   ar
    39   155   154    1
    40   140   142   ar
    41   141   143   ar
    42    95    96    1
    43    99   100   ar
    44    96    98   ar
    45    89    88   ar
    46    85    84    2
    47   124   126   ar
    48   124   125   ar
    49   142   143   ar
    50   143   144    1
    51    88    87    1
    52    88    90   ar
    53   129   126   ar
    54   129   131   ar
    55    87    86    1
    56   100    98   ar
    57   100   102   ar
    58   126   128   ar
    59    98   101   ar
    60   125   127   ar
    61    84    83    1
    62   131   132   ar
    63    83    86    1
    64    83    82    1
    65   102   104   ar
    66   182   180   ar
    67   182   183   ar
    68   128   127   ar
    69   128   130   ar
    70   101   103   ar
    71   148   147    2
    72   132   130   ar
    73   180   179   ar
    74   185   183   ar
    75   185   187   ar
    76   104   103   ar
    77   183   181   ar
    78   147   146    1
    79    81    79   ar
    80   187   186   ar
    81   179   181   ar
    82   179   178    1
    83    79    80   ar
    84    79    78    1
    85   181   184   ar
    86    76    75    2
    87   146   149    1
    88   146   145    1
    89   149   150    1
    90    30    28   ar
    91    78    77    1
    92   152   151   ar
    93    77    74    1
    94   178   175    1
    95   186   184   ar
    96   163   162    2
    97    27    28    1
    98    27    24    1
    99   175   174    1
   100   175   176    1
   101    28    29   ar
   102    75    74    1
   103    74    73    1
   104   164   165    1
   105   164   161    1
   106    62    61    2
   107   150   151    1
   108   151   153   ar
   109   160   161    1
   110    26    25    2
   111   166   165   ar
   112   166   168   ar
   113   177   176    2
   114   165   167   ar
   115   162   161    1
   116    24    25    1
   117    24    23    1
   118     8     6   am
   119     7     6    2
   120    61    60    1
   121    63    64    1
   122    63    60    1
   123    25    31   am
   124    73    67   am
   125     1     2    1
   126     6     5    1
   127   168   169   ar
   128    60    59    1
   129   167   169   ar
   130   167   170   ar
   131    72    70   am
   132    23    11   am
   133     2     5    1
   134     2     3    1
   135   169   171   ar
   136    71    70    2
   137    67    68    2
   138    67    66    1
   139   170   172   ar
   140    31    32    1
   141    70    69    1
   142    12    11    2
   143    11    10    1
   144    32    35    1
   145    32    33    1
   146    37    36   ar
   147    37    39   ar
   148    17    15   ar
   149    17    18   ar
   150    35    36    1
   151     3     4    2
   152   171   173   ar
   153    15    14   ar
   154    66    69    1
   155    66    65    1
   156   172   173   ar
   157    20    18   ar
   158    20    22   ar
   159    36    38   ar
   160    18    16   ar
   161    39    40   ar
   162    10    13    1
   163    10     9    1
   164    53    51   ar
   165    53    54   ar
   166    33    34    2
   167    14    16   ar
   168    14    13    1
   169    22    21   ar
   170    16    19   ar
   171    51    50   ar
   172    38    40   ar
   173    38    41   ar
   174    40    42   ar
   175    56    54   ar
   176    56    58   ar
   177    54    52   ar
   178    21    19   ar
   179    50    52   ar
   180    50    49    1
   181    42    44   ar
   182    58    57   ar
   183    41    43   ar
   184    52    55   ar
   185    49    46    1
   186    57    55   ar
   187    44    43   ar
   188    46    47    1
   189    46    45    1
   190    47    48    2
