@<TRIPOS>MOLECULE
tmp/2vr5A01.pdb
 191 184 0 0 0
SMALL
GASTEIGER

@<TRIPOS>ATOM
      1  N        -63.6560   64.6790   42.2000 N.3   227  GLN227     -0.1245
      2  CA       -62.2390   64.5460   42.5180 C.3   227  GLN227      0.1566
      3  C        -62.0380   64.0480   43.9450 C.2   227  GLN227      0.2260
      4  O        -62.7160   64.4950   44.8700 O.2   227  GLN227     -0.2867
      5  CB       -61.5180   65.8820   42.3210 C.3   227  GLN227      0.0367
      6  CG       -61.6860   66.4790   40.9340 C.3   227  GLN227      0.0905
      7  CD       -62.8710   67.4190   40.8430 C.2   227  GLN227      0.2608
      8  OE1      -64.0240   66.9910   40.8990 O.2   227  GLN227     -0.2717
      9  NE2      -62.5930   68.7100   40.7020 N.am  227  GLN227     -0.0878
     10  N        -59.4180   64.4950   45.9120 N.3   229  PHE229     -0.1241
     11  CA       -58.8160   65.5260   46.7480 C.3   229  PHE229      0.1605
     12  C        -59.8640   66.5210   47.2360 C.2   229  PHE229      0.2264
     13  O        -59.6350   67.2570   48.1960 O.2   229  PHE229     -0.2867
     14  CB       -57.7110   66.2580   45.9840 C.3   229  PHE229      0.0534
     15  CG       -58.2230   67.1840   44.9180 C.ar  229  PHE229     -0.0203
     16  CD1      -58.7910   68.4020   45.2530 C.ar  229  PHE229     -0.0042
     17  CD2      -58.1370   66.8370   43.5800 C.ar  229  PHE229     -0.0042
     18  CE1      -59.2630   69.2570   44.2750 C.ar  229  PHE229     -0.0003
     19  CE2      -58.6070   67.6870   42.5970 C.ar  229  PHE229     -0.0003
     20  CZ       -59.1700   68.8980   42.9450 C.ar  229  PHE229     -0.0000
     21  N        -67.5710   68.3500   43.9550 N.3   237  ASN237     -0.1240
     22  CA       -67.5700   69.0700   42.6880 C.3   237  ASN237      0.1653
     23  C        -68.9420   69.6420   42.3480 C.2   237  ASN237      0.2266
     24  O        -69.7970   68.9450   41.8020 O.2   237  ASN237     -0.2867
     25  CB       -67.0830   68.1620   41.5560 C.3   237  ASN237      0.1155
     26  CG       -66.6620   68.9400   40.3250 C.2   237  ASN237      0.2627
     27  OD1      -67.1770   70.0250   40.0560 O.2   237  ASN237     -0.2716
     28  ND2      -65.7190   68.3880   39.5700 N.am  237  ASN237     -0.0877
     29  N        -69.6720   72.4800   40.4800 N.3   239  TRP239     -0.1241
     30  CA       -69.8000   73.0500   39.1440 C.3   239  TRP239      0.1605
     31  C        -70.0070   71.9600   38.0970 C.2   239  TRP239      0.2264
     32  O        -70.9000   72.0560   37.2550 O.2   239  TRP239     -0.2867
     33  CB       -68.5660   73.8850   38.7970 C.3   239  TRP239      0.0550
     34  CG       -68.6150   75.2800   39.3400 C.ar  239  TRP239      0.0003
     35  CD1      -69.6170   75.8380   40.0800 C.ar  239  TRP239      0.0946
     36  CD2      -67.6160   76.2970   39.1870 C.ar  239  TRP239      0.0152
     37  NE1      -69.3040   77.1380   40.3970 N.ar  239  TRP239     -0.2442
     38  CE2      -68.0810   77.4440   39.8610 C.ar  239  TRP239      0.0810
     39  CE3      -66.3740   76.3480   38.5460 C.ar  239  TRP239      0.0012
     40  CZ2      -67.3490   78.6280   39.9110 C.ar  239  TRP239      0.0191
     41  CZ3      -65.6490   77.5240   38.5980 C.ar  239  TRP239      0.0001
     42  CH2      -66.1380   78.6480   39.2750 C.ar  239  TRP239      0.0015
     43  N        -67.4250   70.5140   36.1890 N.3   241  TYR241     -0.1227
     44  CA       -66.4930   70.5980   35.0700 C.3   241  TYR241      0.1736
     45  C        -65.4460   69.4910   35.1400 C.2   241  TYR241      0.2595
     46  O        -64.2530   69.7420   34.9740 O.2   241  TYR241     -0.2718
     47  CB       -65.8110   71.9670   35.0420 C.3   241  TYR241      0.0548
     48  CG       -66.7200   73.0960   34.6150 C.ar  241  TYR241     -0.0200
     49  CD1      -67.3960   73.8630   35.5550 C.ar  241  TYR241     -0.0009
     50  CD2      -66.9030   73.3960   33.2710 C.ar  241  TYR241     -0.0009
     51  CE1      -68.2290   74.8960   35.1690 C.ar  241  TYR241      0.0417
     52  CE2      -67.7340   74.4270   32.8760 C.ar  241  TYR241      0.0417
     53  CZ       -68.3940   75.1740   33.8280 C.ar  241  TYR241      0.1957
     54  OH       -69.2220   76.2020   33.4390 O.3   241  TYR241     -0.2866
     55  N        -65.9010   68.2670   35.3870 N.am  242  ASP242     -0.1974
     56  CA       -65.0180   67.1070   35.3880 C.3   242  ASP242      0.1709
     57  C        -65.7410   65.8640   34.8800 C.2   242  ASP242      0.2293
     58  O        -65.9830   64.9230   35.6370 O.2   242  ASP242     -0.2864
     59  CB       -64.4640   66.8570   36.7910 C.3   242  ASP242      0.1436
     60  CG       -62.9750   67.1250   36.8860 C.2   242  ASP242      0.3671
     61  OD1      -62.5930   68.2900   37.1250 O.co2 242  ASP242     -0.2456
     62  OD2      -62.1860   66.1710   36.7210 O.co2 242  ASP242     -0.2456
     63  N        -61.0550   67.8430   28.4900 N.3   288  HIS288     -0.1241
     64  CA       -60.3920   67.0000   29.4780 C.3   288  HIS288      0.1621
     65  C        -61.3770   66.0360   30.1300 C.2   288  HIS288      0.2264
     66  O        -62.5890   66.1590   29.9550 O.2   288  HIS288     -0.2867
     67  CB       -59.7120   67.8600   30.5460 C.3   288  HIS288      0.0745
     68  CG       -60.6590   68.4240   31.5590 C.ar  288  HIS288      0.0817
     69  ND1      -60.8460   67.8550   32.8010 N.ar  288  HIS288     -0.2268
     70  CD2      -61.4720   69.5060   31.5150 C.ar  288  HIS288      0.1154
     71  CE1      -61.7330   68.5630   33.4780 C.ar  288  HIS288      0.1986
     72  NE2      -62.1280   69.5700   32.7200 N.ar  288  HIS288     -0.2212
     73  N        -55.4350   71.8940   29.5660 N.3   324  THR324     -0.1203
     74  CA       -56.6790   72.1990   30.2620 C.3   324  THR324      0.1994
     75  C        -56.4200   72.5580   31.7220 C.2   324  THR324      0.2618
     76  O        -57.1910   73.2960   32.3360 O.2   324  THR324     -0.2717
     77  CB       -57.6650   71.0180   30.2010 C.3   324  THR324      0.1784
     78  OG1      -57.0750   69.8670   30.8190 O.3   324  THR324     -0.2211
     79  CG2      -58.0140   70.6890   28.7570 C.3   324  THR324      0.0376
     80  N        -55.3310   72.0310   32.2710 N.am  325  GLY325     -0.1942
     81  CA       -54.9340   72.3460   33.6310 C.3   325  GLY325      0.2014
     82  C        -55.6010   71.4480   34.6530 C.2   325  GLY325      0.2639
     83  O        -55.7430   71.8170   35.8190 O.2   325  GLY325     -0.2714
     84  N        -56.0120   70.2630   34.2140 N.am  326  THR326     -0.1950
     85  CA       -56.7960   69.3650   35.0530 C.3   326  THR326      0.1897
     86  C        -56.2240   67.9510   35.0320 C.2   326  THR326      0.2313
     87  O        -56.8080   67.0260   35.5970 O.2   326  THR326     -0.2863
     88  CB       -58.2700   69.3190   34.6080 C.3   326  THR326      0.1794
     89  OG1      -58.4110   68.4140   33.5060 O.3   326  THR326     -0.2208
     90  CG2      -58.7420   70.7020   34.1870 C.3   326  THR326      0.0378
     91  N        -72.2340   75.7710   24.9240 N.3   358  ARG358     -0.1245
     92  CA       -71.1230   76.6300   25.3180 C.3   358  ARG358      0.1563
     93  C        -69.8880   75.8070   25.6700 C.2   358  ARG358      0.2260
     94  O        -69.8040   75.2280   26.7530 O.2   358  ARG358     -0.2867
     95  CB       -71.5220   77.5120   26.5030 C.3   358  ARG358      0.0307
     96  CG       -70.4290   78.4600   26.9670 C.3   358  ARG358      0.0489
     97  CD       -69.5620   77.8190   28.0400 C.3   358  ARG358      0.2205
     98  NE       -68.7050   78.7960   28.7050 N.pl3 358  ARG358     -0.0865
     99  CZ       -67.7710   78.4840   29.5980 C.cat 358  ARG358      0.5346
    100  NH1      -67.5710   77.2180   29.9370 N.pl3 358  ARG358      0.1354
    101  NH2      -67.0370   79.4380   30.1540 N.pl3 358  ARG358      0.1354
    102  N        -66.4550   74.7270   26.9430 N.3   360  ASP360     -0.1225
    103  CA       -65.5020   75.1590   27.9590 C.3   360  ASP360      0.1805
    104  C        -64.0660   74.9660   27.4860 C.2   360  ASP360      0.2597
    105  O        -63.7030   73.8980   26.9910 O.2   360  ASP360     -0.2718
    106  CB       -65.7320   74.3980   29.2670 C.3   360  ASP360      0.1424
    107  CG       -64.5800   74.5510   30.2400 C.2   360  ASP360      0.3668
    108  OD1      -63.7570   73.6170   30.3420 O.co2 360  ASP360     -0.2456
    109  OD2      -64.4980   75.6060   30.9040 O.co2 360  ASP360     -0.2456
    110  N        -63.2520   76.0050   27.6420 N.am  361  LEU361     -0.1979
    111  CA       -61.8450   75.9400   27.2630 C.3   361  LEU361      0.1596
    112  C        -61.6860   75.5480   25.7980 C.2   361  LEU361      0.2287
    113  O        -60.9090   74.6520   25.4670 O.2   361  LEU361     -0.2864
    114  CB       -61.0950   74.9510   28.1570 C.3   361  LEU361      0.0297
    115  CG       -60.6620   75.4710   29.5290 C.3   361  LEU361      0.0022
    116  CD1      -59.5720   74.5890   30.1190 C.3   361  LEU361      0.0001
    117  CD2      -60.1950   76.9150   29.4330 C.3   361  LEU361      0.0001
    118  N        -65.5170   79.4130   24.8830 N.3   396  GLU396     -0.1245
    119  CA       -64.4680   80.0510   25.6700 C.3   396  GLU396      0.1567
    120  C        -63.1520   80.0940   24.9020 C.2   396  GLU396      0.2260
    121  O        -62.4600   79.0830   24.7790 O.2   396  GLU396     -0.2867
    122  CB       -64.2770   79.3200   27.0000 C.3   396  GLU396      0.0388
    123  CG       -63.8980   80.2290   28.1580 C.3   396  GLU396      0.1160
    124  CD       -63.5470   79.4560   29.4140 C.2   396  GLU396      0.3649
    125  OE1      -63.1720   80.0930   30.4210 O.co2 396  GLU396     -0.2457
    126  OE2      -63.6450   78.2110   29.3950 O.co2 396  GLU396     -0.2457
    127  N        -69.9720   82.4010   36.3490 N.3   467  HIS467     -0.1226
    128  CA       -69.6170   81.3670   37.3130 C.3   467  HIS467      0.1752
    129  C        -68.1210   81.3800   37.6100 C.2   467  HIS467      0.2596
    130  O        -67.7000   81.1120   38.7350 O.2   467  HIS467     -0.2718
    131  CB       -70.0390   79.9890   36.8000 C.3   467  HIS467      0.0759
    132  CG       -69.1020   79.4080   35.7870 C.ar  467  HIS467      0.0818
    133  ND1      -69.3500   79.4530   34.4320 N.ar  467  HIS467     -0.2268
    134  CD2      -67.9160   78.7700   35.9310 C.ar  467  HIS467      0.1154
    135  CE1      -68.3580   78.8670   33.7850 C.ar  467  HIS467      0.1986
    136  NE2      -67.4750   78.4440   34.6720 N.ar  467  HIS467     -0.2212
    137  N        -67.3240   81.6950   36.5950 N.am  468  ASP468     -0.1974
    138  CA       -65.9120   82.0000   36.7950 C.3   468  ASP468      0.1709
    139  C        -65.7240   83.4200   37.3180 C.2   468  ASP468      0.2293
    140  O        -65.9490   84.3930   36.5970 O.2   468  ASP468     -0.2864
    141  CB       -65.1330   81.8130   35.4910 C.3   468  ASP468      0.1436
    142  CG       -64.3540   80.5130   35.4600 C.2   468  ASP468      0.3671
    143  OD1      -64.0590   80.0210   34.3510 O.co2 468  ASP468     -0.2456
    144  OD2      -64.0350   79.9830   36.5450 O.co2 468  ASP468     -0.2456
    145  N        -58.0070   75.3100   50.0800 N.3   488  PHE488     -0.1241
    146  CA       -56.7090   75.3980   49.4220 C.3   488  PHE488      0.1605
    147  C        -55.9040   76.5830   49.9450 C.2   488  PHE488      0.2264
    148  O        -55.2580   77.2940   49.1770 O.2   488  PHE488     -0.2867
    149  CB       -56.8840   75.5100   47.9060 C.3   488  PHE488      0.0534
    150  CG       -57.6140   74.3490   47.2920 C.ar  488  PHE488     -0.0203
    151  CD1      -58.9850   74.3970   47.1050 C.ar  488  PHE488     -0.0042
    152  CD2      -56.9290   73.2100   46.9030 C.ar  488  PHE488     -0.0042
    153  CE1      -59.6600   73.3310   46.5410 C.ar  488  PHE488     -0.0003
    154  CE2      -57.5980   72.1410   46.3380 C.ar  488  PHE488     -0.0003
    155  CZ       -58.9650   72.2010   46.1570 C.ar  488  PHE488     -0.0000
    156  N        -55.3650   79.7150   47.9470 N.3   491  GLN491     -0.1231
    157  CA       -54.3560   79.7820   46.8970 C.3   491  GLN491      0.1698
    158  C        -54.9520   79.4350   45.5370 C.2   491  GLN491      0.2592
    159  O        -54.2370   79.0220   44.6230 O.2   491  GLN491     -0.2718
    160  CB       -53.1890   78.8460   47.2150 C.3   491  GLN491      0.0381
    161  CG       -52.0080   79.5300   47.8840 C.3   491  GLN491      0.0905
    162  CD       -51.1700   80.3320   46.9080 C.2   491  GLN491      0.2608
    163  OE1      -50.4810   79.7710   46.0560 O.2   491  GLN491     -0.2717
    164  NE2      -51.2250   81.6540   47.0270 N.am  491  GLN491     -0.0878
    165  N        -56.2640   79.6040   45.4100 N.am  492  ASP492     -0.1974
    166  CA       -56.9440   79.3940   44.1380 C.3   492  ASP492      0.1709
    167  C        -57.8510   80.5720   43.7970 C.2   492  ASP492      0.2293
    168  O        -58.2590   81.3290   44.6780 O.2   492  ASP492     -0.2864
    169  CB       -57.7550   78.0980   44.1710 C.3   492  ASP492      0.1436
    170  CG       -58.8690   78.1330   45.1980 C.2   492  ASP492      0.3671
    171  OD1      -58.5830   77.9150   46.3950 O.co2 492  ASP492     -0.2456
    172  OD2      -60.0300   78.3790   44.8100 O.co2 492  ASP492     -0.2456
    173  N        -64.3590   81.6510   43.2410 N.3   552  ASN552     -0.1240
    174  CA       -64.0510   80.3520   42.6540 C.3   552  ASN552      0.1653
    175  C        -64.7950   79.2160   43.3460 C.2   552  ASN552      0.2266
    176  O        -64.1930   78.2190   43.7450 O.2   552  ASN552     -0.2867
    177  CB       -62.5430   80.0930   42.6900 C.3   552  ASN552      0.1155
    178  CG       -62.1300   78.9340   41.8040 C.2   552  ASN552      0.2627
    179  OD1      -61.7240   77.8790   42.2910 O.2   552  ASN552     -0.2716
    180  ND2      -62.2330   79.1250   40.4940 N.am  552  ASN552     -0.0877
    181  N        -66.2480   76.5690   43.0590 N.3   554  PHE554     -0.1241
    182  CA       -66.4830   75.4290   42.1810 C.3   554  PHE554      0.1605
    183  C        -66.8090   74.1740   42.9830 C.2   554  PHE554      0.2264
    184  O        -67.4350   73.2450   42.4730 O.2   554  PHE554     -0.2867
    185  CB       -65.2660   75.1810   41.2880 C.3   554  PHE554      0.0534
    186  CG       -64.1200   74.5150   41.9960 C.ar  554  PHE554     -0.0203
    187  CD1      -63.9740   73.1380   41.9620 C.ar  554  PHE554     -0.0042
    188  CD2      -63.1900   75.2650   42.6950 C.ar  554  PHE554     -0.0042
    189  CE1      -62.9210   72.5220   42.6110 C.ar  554  PHE554     -0.0003
    190  CE2      -62.1350   74.6550   43.3470 C.ar  554  PHE554     -0.0003
    191  CZ       -62.0010   73.2820   43.3050 C.ar  554  PHE554     -0.0000
@<TRIPOS>BOND
     1   121   120    2
     2   118   119    1
     3   120   119    1
     4    91    92    1
     5    92    93    1
     6    92    95    1
     7   113   112    2
     8   119   122    1
     9    93    94    2
    10   112   111    1
    11    95    96    1
    12   102   103    1
    13    96    97    1
    14   105   104    2
    15   122   123    1
    16   111   110    1
    17   111   114    1
    18   104   110   am
    19   104   103    1
    20   103   106    1
    21    97    98    1
    22   114   115    1
    23   123   124    1
    24    63    64    1
    25    98    99    2
    26    79    77    1
    27   106   107    1
    28   126   124   ar
    29   124   125   ar
    30   117   115    1
    31    64    65    1
    32    64    67    1
    33   115   116    1
    34    73    74    1
    35    99   100    1
    36    99   101    1
    37    66    65    2
    38    77    74    1
    39    77    78    1
    40   107   108   ar
    41   107   109   ar
    42    74    75    1
    43    67    68    1
    44    70    68   ar
    45    70    72   ar
    46    68    69   ar
    47    75    80   am
    48    75    76    2
    49    80    81    1
    50    72    71   ar
    51    69    71   ar
    52    52    50   ar
    53    52    53   ar
    54    50    48   ar
    55    54    53    1
    56    89    88    1
    57    81    82    1
    58   135   133   ar
    59   135   136   ar
    60    53    51   ar
    61    90    88    1
    62    84    82   am
    63    84    85    1
    64   143   142   ar
    65   133   132   ar
    66    88    85    1
    67    48    47    1
    68    48    49   ar
    69    82    83    2
    70   136   134   ar
    71    57    56    1
    72    57    58    2
    73    46    45    2
    74    86    85    1
    75    86    87    2
    76    47    44    1
    77    44    45    1
    78    44    43    1
    79    45    55   am
    80    51    49   ar
    81    55    56    1
    82    56    59    1
    83   142   141    1
    84   142   144   ar
    85   141   138    1
    86   132   134   ar
    87   132   131    1
    88   127   128    1
    89   137   138    1
    90   137   129   am
    91   140   139    2
    92    62    60   ar
    93    59    60    1
    94   138   139    1
    95   131   128    1
    96    60    61   ar
    97    32    31    2
    98   128   129    1
    99   129   130    2
   100    31    30    1
   101    39    41   ar
   102    39    36   ar
   103    41    42   ar
   104    33    30    1
   105    33    34    1
   106    30    29    1
   107    36    34   ar
   108    36    38   ar
   109    42    40   ar
   110    34    35   ar
   111    28    26   am
   112    38    40   ar
   113    38    37   ar
   114    27    26    2
   115    35    37   ar
   116    26    25    1
   117   180   178   am
   118     9     7   am
   119     7     8    2
   120     7     6    1
   121     6     5    1
   122   185   186    1
   123   185   182    1
   124    25    22    1
   125    24    23    2
   126   178   179    2
   127   178   177    1
   128   187   186   ar
   129   187   189   ar
   130   186   188   ar
   131   182   183    1
   132   182   181    1
   133     1     2    1
   134     5     2    1
   135    23    22    1
   136   184   183    2
   137     2     3    1
   138    19    20   ar
   139    19    17   ar
   140   189   191   ar
   141   174   177    1
   142   174   173    1
   143   174   175    1
   144    22    21    1
   145   188   190   ar
   146    20    18   ar
   147   191   190   ar
   148   175   176    2
   149    17    15   ar
   150   167   166    1
   151   167   168    2
   152     3     4    2
   153   166   169    1
   154   166   165    1
   155   169   170    1
   156    18    16   ar
   157   159   158    2
   158   172   170   ar
   159    15    16   ar
   160    15    14    1
   161   170   171   ar
   162   165   158   am
   163   158   157    1
   164    10    11    1
   165    14    11    1
   166   163   162    2
   167   155   154   ar
   168   155   153   ar
   169   154   152   ar
   170   153   151   ar
   171    11    12    1
   172   157   160    1
   173   157   156    1
   174   152   150   ar
   175   162   164   am
   176   162   161    1
   177   151   150   ar
   178   160   161    1
   179    12    13    2
   180   150   149    1
   181   149   146    1
   182   148   147    2
   183   146   147    1
   184   146   145    1
