@<TRIPOS>MOLECULE
tmp/2vraA00.pdb
 95 91 0 0 0
SMALL
GASTEIGER

@<TRIPOS>ATOM
      1  N         64.6100   59.4090   34.0960 N.3    19  LYS19      -0.1231
      2  CA        65.9710   59.0410   34.4750 C.3    19  LYS19       0.1693
      3  C         66.8930   59.0630   33.2710 C.2    19  LYS19       0.2592
      4  O         66.6290   58.4230   32.2690 O.2    19  LYS19      -0.2718
      5  CB        66.0030   57.6390   35.0860 C.3    19  LYS19       0.0285
      6  CG        67.3160   57.3200   35.8090 C.3    19  LYS19       0.0035
      7  CD        67.5140   55.8300   36.1590 C.3    19  LYS19       0.0206
      8  CE        67.8800   55.0030   34.9230 C.3    19  LYS19       0.1093
      9  NZ        68.3060   53.6150   35.2260 N.3    19  LYS19      -0.1314
     10  N         67.9820   59.8060   33.3740 N.am   20  ASN20      -0.1974
     11  CA        68.9600   59.9000   32.2950 C.3    20  ASN20       0.1688
     12  C         68.6650   60.9190   31.2100 C.2    20  ASN20       0.2292
     13  O         69.3170   60.9220   30.1810 O.2    20  ASN20      -0.2864
     14  CB        69.2080   58.5200   31.6870 C.3    20  ASN20       0.1181
     15  CG        69.8280   57.5560   32.6890 C.2    20  ASN20       0.2629
     16  OD1       70.0770   56.4010   32.3780 O.2    20  ASN20      -0.2716
     17  ND2       70.0850   58.0380   33.9010 N.am   20  ASN20      -0.0877
     18  N         72.9720   64.6070   32.3610 N.3    67  ARG67      -0.1245
     19  CA        72.4220   63.2630   32.4200 C.3    67  ARG67       0.1563
     20  C         71.8690   63.0610   33.8200 C.2    67  ARG67       0.2260
     21  O         72.5900   62.6830   34.7400 O.2    67  ARG67      -0.2867
     22  CB        73.5050   62.2230   32.0930 C.3    67  ARG67       0.0307
     23  CG        72.9420   60.8920   31.6210 C.3    67  ARG67       0.0489
     24  CD        73.9750   60.0350   30.9170 C.3    67  ARG67       0.2205
     25  NE        73.3300   58.8600   30.3400 N.pl3  67  ARG67      -0.0865
     26  CZ        73.1480   57.7040   30.9770 C.cat  67  ARG67       0.5346
     27  NH1       73.5780   57.5490   32.2300 N.pl3  67  ARG67       0.1354
     28  NH2       72.5030   56.7060   30.3700 N.pl3  67  ARG67       0.1354
     29  N         70.2950   61.7420   37.1590 N.3    69  MET69      -0.1230
     30  CA        70.4850   60.4530   37.8300 C.3    69  MET69       0.1702
     31  C         69.4880   60.2010   38.9410 C.2    69  MET69       0.2592
     32  O         69.0510   61.1270   39.5990 O.2    69  MET69      -0.2718
     33  CB        71.8740   60.3700   38.4320 C.3    69  MET69       0.0401
     34  CG        72.9760   60.5870   37.4500 C.3    69  MET69       0.0596
     35  SD        74.4600   59.8610   38.0750 S.3    69  MET69      -0.1393
     36  CE        75.2670   61.2330   38.7910 C.3    69  MET69       0.0692
     37  N         69.1580   58.9370   39.1740 N.am   70  GLN70      -0.1966
     38  CA        68.1960   58.5820   40.2140 C.3    70  GLN70       0.1733
     39  C         68.3550   57.1240   40.6090 C.2    70  GLN70       0.2617
     40  O         67.4190   56.3360   40.5020 O.2    70  GLN70      -0.2715
     41  CB        66.7700   58.8130   39.7070 C.3    70  GLN70       0.0408
     42  CG        65.6790   58.6830   40.7510 C.3    70  GLN70       0.0908
     43  CD        65.6960   59.8130   41.7490 C.2    70  GLN70       0.2608
     44  OE1       66.6070   59.9270   42.5640 O.2    70  GLN70      -0.2717
     45  NE2       64.6860   60.6630   41.6860 N.am   70  GLN70      -0.0878
     46  N         69.5460   56.7690   41.0720 N.am   71  GLY71      -0.1940
     47  CA        69.7970   55.3980   41.4690 C.3    71  GLY71       0.2014
     48  C         70.2950   55.2440   42.8880 C.2    71  GLY71       0.2639
     49  O         69.8740   55.9690   43.7870 O.2    71  GLY71      -0.2714
     50  N         71.1870   54.2760   43.0770 N.am   72  LYS72      -0.1963
     51  CA        71.7710   53.9900   44.3810 C.3    72  LYS72       0.1728
     52  C         72.8960   54.9670   44.6560 C.2    72  LYS72       0.2616
     53  O         73.0380   55.4730   45.7690 O.2    72  LYS72      -0.2715
     54  CB        72.3040   52.5610   44.4220 C.3    72  LYS72       0.0311
     55  CG        71.3300   51.4120   44.1810 C.3    72  LYS72       0.0038
     56  CD        70.3710   51.4610   45.3140 C.3    72  LYS72       0.0206
     57  CE        69.3410   50.4080   44.8350 C.3    72  LYS72       0.1093
     58  NZ        68.0170   50.8480   45.3030 N.3    72  LYS72      -0.1314
     59  N         73.6900   55.2410   43.6300 N.am   73  LYS73      -0.1963
     60  CA        74.8050   56.1560   43.7810 C.3    73  LYS73       0.1728
     61  C         74.3190   57.5950   43.9590 C.2    73  LYS73       0.2616
     62  O         74.4740   58.1780   45.0420 O.2    73  LYS73      -0.2715
     63  CB        75.7380   56.0530   42.5710 C.3    73  LYS73       0.0311
     64  CG        77.0850   56.7010   42.8250 C.3    73  LYS73       0.0038
     65  CD        78.0290   56.4330   41.6610 C.3    73  LYS73       0.0206
     66  CE        79.3830   57.0540   41.9550 C.3    73  LYS73       0.1093
     67  NZ        79.2630   58.4890   42.1100 N.3    73  LYS73      -0.1314
     68  N         73.7160   58.1540   42.9080 N.am   74  GLU74      -0.1977
     69  CA        73.2360   59.5370   42.9350 C.3    74  GLU74       0.1602
     70  C         71.7260   59.6470   42.8590 C.2    74  GLU74       0.2287
     71  O         71.0940   58.8930   42.1240 O.2    74  GLU74      -0.2864
     72  CB        73.8280   60.3140   41.7590 C.3    74  GLU74       0.0415
     73  CG        75.3390   60.3070   41.6950 C.3    74  GLU74       0.1163
     74  CD        75.9590   61.0300   42.8560 C.2    74  GLU74       0.3649
     75  OE1       75.5670   62.1940   43.1050 O.co2  74  GLU74      -0.2457
     76  OE2       76.8360   60.4330   43.5140 O.co2  74  GLU74      -0.2457
     77  N         61.9240   50.4150   35.7890 N.3   104  ARG104     -0.1231
     78  CA        62.8040   49.2860   35.5520 C.3   104  ARG104      0.1694
     79  C         62.1500   48.3150   34.5820 C.2   104  ARG104      0.2592
     80  O         60.9260   48.2340   34.5090 O.2   104  ARG104     -0.2718
     81  CB        63.1090   48.5600   36.8610 C.3   104  ARG104      0.0321
     82  CG        64.1170   49.2480   37.7840 C.3   104  ARG104      0.0489
     83  CD        64.3990   48.3560   38.9880 C.3   104  ARG104      0.2205
     84  NE        65.2250   48.9970   40.0050 N.pl3 104  ARG104     -0.0865
     85  CZ        65.2470   48.6240   41.2870 C.cat 104  ARG104      0.5346
     86  NH1       64.4810   47.6130   41.6970 N.pl3 104  ARG104      0.1354
     87  NH2       66.0290   49.2570   42.1660 N.pl3 104  ARG104      0.1354
     88  N         62.9640   47.5770   33.8370 N.am  105  ASP105     -0.1974
     89  CA        62.4370   46.6050   32.8910 C.3   105  ASP105      0.1709
     90  C         62.8020   45.2120   33.3540 C.2   105  ASP105      0.2293
     91  O         63.5950   44.5170   32.7330 O.2   105  ASP105     -0.2864
     92  CB        62.9920   46.8720   31.4950 C.3   105  ASP105      0.1436
     93  CG        64.4660   47.1900   31.5130 C.2   105  ASP105      0.3671
     94  OD1       64.8620   47.9410   32.4250 O.co2 105  ASP105     -0.2456
     95  OD2       65.2200   46.7100   30.6260 O.co2 105  ASP105     -0.2456
@<TRIPOS>BOND
     1    13    12    2
     2    25    24    1
     3    25    26    2
     4    28    26    1
     5    95    93   ar
     6    24    23    1
     7    26    27    1
     8    12    11    1
     9    92    93    1
    10    92    89    1
    11    93    94   ar
    12    23    22    1
    13    14    11    1
    14    14    15    1
    15    22    19    1
    16     4     3    2
    17    11    10    1
    18    18    19    1
    19    16    15    2
    20    19    20    1
    21    15    17   am
    22    91    90    2
    23    89    90    1
    24    89    88    1
    25     3    10   am
    26     3     2    1
    27    20    21    2
    28    88    79   am
    29     1     2    1
    30     2     5    1
    31    80    79    2
    32    79    78    1
    33     8     9    1
    34     8     7    1
    35     5     6    1
    36    78    77    1
    37    78    81    1
    38     6     7    1
    39    81    82    1
    40    29    30    1
    41    34    35    1
    42    34    33    1
    43    82    83    1
    44    30    33    1
    45    30    31    1
    46    35    36    1
    47    31    37   am
    48    31    32    2
    49    83    84    1
    50    37    38    1
    51    41    38    1
    52    41    42    1
    53    84    85    2
    54    38    39    1
    55    40    39    2
    56    39    46   am
    57    42    43    1
    58    46    47    1
    59    85    86    1
    60    85    87    1
    61    47    48    1
    62    65    66    1
    63    65    64    1
    64    45    43   am
    65    73    72    1
    66    73    74    1
    67    43    44    2
    68    72    69    1
    69    66    67    1
    70    71    70    2
    71    63    64    1
    72    63    60    1
    73    74    75   ar
    74    74    76   ar
    75    70    69    1
    76    48    50   am
    77    48    49    2
    78    68    69    1
    79    68    61   am
    80    50    51    1
    81    59    60    1
    82    59    52   am
    83    60    61    1
    84    61    62    2
    85    55    54    1
    86    55    56    1
    87    51    54    1
    88    51    52    1
    89    52    53    2
    90    57    58    1
    91    57    56    1
