@<TRIPOS>MOLECULE
tmp/2vrjA00.pdb
 166 165 0 0 0
SMALL
GASTEIGER

@<TRIPOS>ATOM
      1  N          2.6940   13.8320    0.6990 N.3    18  GLN18      -0.1245
      2  CA         1.4290   13.1530    0.4910 C.3    18  GLN18       0.1566
      3  C          0.6140   13.7750   -0.6450 C.2    18  GLN18       0.2260
      4  O         -0.1830   13.0590   -1.2650 O.2    18  GLN18      -0.2867
      5  CB         0.6170   13.0400    1.7780 C.3    18  GLN18       0.0367
      6  CG         1.3520   12.2530    2.8710 C.3    18  GLN18       0.0905
      7  CD         0.4980   12.0130    4.0930 C.2    18  GLN18       0.2608
      8  OE1        0.6700   12.6710    5.1160 O.2    18  GLN18      -0.2717
      9  NE2       -0.4170   11.0540    4.0040 N.am   18  GLN18      -0.0878
     10  N          7.4930   16.7920    8.2760 N.3   119  HIS119     -0.1226
     11  CA         6.5000   15.7060    8.1910 C.3   119  HIS119      0.1752
     12  C          7.0530   14.5750    7.3340 C.2   119  HIS119      0.2596
     13  O          6.4060   14.1260    6.3820 O.2   119  HIS119     -0.2718
     14  CB         5.1960   16.2700    7.6090 C.3   119  HIS119      0.0759
     15  CG         3.9620   15.4840    7.9580 C.ar  119  HIS119      0.0818
     16  ND1        2.8390   16.0840    8.4910 N.ar  119  HIS119     -0.2268
     17  CD2        3.6460   14.1800    7.7840 C.ar  119  HIS119      0.1154
     18  CE1        1.8910   15.1730    8.6450 C.ar  119  HIS119      0.1986
     19  NE2        2.3440   14.0140    8.2000 N.ar  119  HIS119     -0.2212
     20  N          8.2800   14.1190    7.7040 N.am  120  TRP120     -0.1976
     21  CA         8.7770   12.7780    7.3960 C.3   120  TRP120      0.1640
     22  C          9.6390   12.6330    6.1470 C.2   120  TRP120      0.2290
     23  O         10.2730   11.5840    5.9970 O.2   120  TRP120     -0.2864
     24  CB         7.6760   11.6900    7.3320 C.3   120  TRP120      0.0576
     25  CG         6.7370   11.6090    8.5370 C.ar  120  TRP120      0.0006
     26  CD1        6.8000   12.3220    9.7240 C.ar  120  TRP120      0.0946
     27  CD2        5.6280   10.7350    8.6480 C.ar  120  TRP120      0.0152
     28  NE1        5.7450   11.9490   10.5530 N.ar  120  TRP120     -0.2442
     29  CE2        5.0320   10.9550    9.9180 C.ar  120  TRP120      0.0810
     30  CE3        5.0710    9.7700    7.7870 C.ar  120  TRP120      0.0012
     31  CZ2        3.9030   10.2690   10.3270 C.ar  120  TRP120      0.0191
     32  CZ3        3.9760    9.0780    8.1990 C.ar  120  TRP120      0.0001
     33  CH2        3.3850    9.3240    9.4640 C.ar  120  TRP120      0.0015
     34  N          6.2600   16.5780   13.1200 N.3   163  ASN163     -0.1225
     35  CA         5.0280   15.7770   13.1280 C.3   163  ASN163      0.1785
     36  C          5.2540   14.3420   13.5520 C.2   163  ASN163      0.2597
     37  O          5.9660   13.6140   12.8860 O.2   163  ASN163     -0.2718
     38  CB         4.3350   15.7500   11.7540 C.3   163  ASN163      0.1169
     39  CG         3.0690   14.9190   11.7820 C.2   163  ASN163      0.2627
     40  OD1        2.0460   15.3650   12.3340 O.2   163  ASN163     -0.2716
     41  ND2        3.1420   13.6840   11.2730 N.am  163  ASN163     -0.0877
     42  N          4.5910   13.9220   14.6330 N.am  164  GLU164     -0.1979
     43  CA         4.5740   12.5190   15.0810 C.3   164  GLU164      0.1602
     44  C          5.9800   11.9030   15.1600 C.2   164  GLU164      0.2287
     45  O          6.2690   10.9580   14.4220 O.2   164  GLU164     -0.2864
     46  CB         3.6490   11.6520   14.1910 C.3   164  GLU164      0.0415
     47  CG         2.1620   12.0770   14.2690 C.3   164  GLU164      0.1163
     48  CD         1.2110   11.2210   13.4190 C.2   164  GLU164      0.3649
     49  OE1        1.6080   10.1440   12.9330 O.co2 164  GLU164     -0.2457
     50  OE2        0.0340   11.6220   13.2640 O.co2 164  GLU164     -0.2457
     51  N          6.1640    8.0870   15.4070 N.3   167  VAL167     -0.1245
     52  CA         6.0370    7.3640   14.1270 C.3   167  VAL167      0.1561
     53  C          7.3640    7.3760   13.3850 C.2   167  VAL167      0.2260
     54  O          7.8320    6.3480   12.9040 O.2   167  VAL167     -0.2867
     55  CB         4.8960    7.9330   13.2140 C.3   167  VAL167      0.0252
     56  CG1        4.7970    7.1220   11.9260 C.3   167  VAL167      0.0019
     57  CG2        3.5210    7.8610   13.9400 C.3   167  VAL167      0.0019
     58  N          7.9080    2.3530    7.5250 N.3   178  HIS178     -0.1241
     59  CA         8.0480    3.6720    6.9080 C.3   178  HIS178      0.1621
     60  C          9.5040    3.9190    6.6340 C.2   178  HIS178      0.2264
     61  O         10.3610    3.2650    7.2440 O.2   178  HIS178     -0.2867
     62  CB         7.5680    4.8110    7.8220 C.3   178  HIS178      0.0745
     63  CG         6.0740    4.9220    7.9170 C.ar  178  HIS178      0.0817
     64  ND1        5.4600    5.8210    8.7560 N.ar  178  HIS178     -0.2268
     65  CD2        5.0820    4.1960    7.3460 C.ar  178  HIS178      0.1154
     66  CE1        4.1470    5.6770    8.6640 C.ar  178  HIS178      0.1986
     67  NE2        3.8880    4.7100    7.8000 N.ar  178  HIS178     -0.2212
     68  N          1.2160   11.9340   17.7930 N.3   220  ASN220     -0.1240
     69  CA         0.1410   10.9510   17.5830 C.3   220  ASN220      0.1653
     70  C         -0.3010   10.4240   18.9390 C.2   220  ASN220      0.2266
     71  O          0.4850   10.3380   19.8750 O.2   220  ASN220     -0.2867
     72  CB         0.5720    9.7440   16.7290 C.3   220  ASN220      0.1155
     73  CG         1.8810    9.1270   17.2120 C.2   220  ASN220      0.2627
     74  OD1        2.9460    9.6960   17.0170 O.2   220  ASN220     -0.2716
     75  ND2        1.7940    7.9680   17.8610 N.am  220  ASN220     -0.0877
     76  N         -6.9680    9.6770   16.2030 N.3   290  TYR290     -0.1241
     77  CA        -7.8530    8.9710   15.2710 C.3   290  TYR290      0.1605
     78  C         -8.6390    7.8510   15.9080 C.2   290  TYR290      0.2264
     79  O         -9.7950    7.6130   15.5440 O.2   290  TYR290     -0.2867
     80  CB        -7.0460    8.3250   14.1200 C.3   290  TYR290      0.0534
     81  CG        -6.3920    9.3510   13.2520 C.ar  290  TYR290     -0.0201
     82  CD1       -5.0870    9.7880   13.5020 C.ar  290  TYR290     -0.0009
     83  CD2       -7.0990    9.9300   12.2120 C.ar  290  TYR290     -0.0009
     84  CE1       -4.4940   10.7720   12.7040 C.ar  290  TYR290      0.0417
     85  CE2       -6.5360   10.9070   11.4250 C.ar  290  TYR290      0.0417
     86  CZ        -5.2320   11.3230   11.6750 C.ar  290  TYR290      0.1957
     87  OH        -4.7320   12.2790   10.8570 O.3   290  TYR290     -0.2866
     88  N         -9.1330    2.0040    7.5180 N.3   315  MET315     -0.1245
     89  CA        -7.8210    1.6610    8.0780 C.3   315  MET315      0.1570
     90  C         -7.9260    0.4750    9.0520 C.2   315  MET315      0.2261
     91  O         -6.9130   -0.0980    9.4510 O.2   315  MET315     -0.2867
     92  CB        -7.1940    2.8570    8.8070 C.3   315  MET315      0.0387
     93  CG        -6.9790    4.1380    7.9710 C.3   315  MET315      0.0595
     94  SD        -5.8020    3.8940    6.6470 S.3   315  MET315     -0.1393
     95  CE        -4.2750    3.6340    7.5430 C.3   315  MET315      0.0692
     96  N         -9.2270    1.1080   11.9370 N.3   317  TRP317     -0.1241
     97  CA        -9.1120    1.8210   13.1930 C.3   317  TRP317      0.1605
     98  C        -10.5090    1.9200   13.8360 C.2   317  TRP317      0.2264
     99  O        -11.4780    2.3090   13.1770 O.2   317  TRP317     -0.2867
    100  CB        -8.5230    3.2100   12.9750 C.3   317  TRP317      0.0550
    101  CG        -7.1220    3.1900   12.4070 C.ar  317  TRP317      0.0003
    102  CD1       -6.2950    2.1010   12.2890 C.ar  317  TRP317      0.0946
    103  CD2       -6.3900    4.3060   11.8950 C.ar  317  TRP317      0.0152
    104  NE1       -5.1010    2.4730   11.7380 N.ar  317  TRP317     -0.2442
    105  CE2       -5.1300    3.8200   11.4830 C.ar  317  TRP317      0.0810
    106  CE3       -6.6780    5.6780   11.7410 C.ar  317  TRP317      0.0012
    107  CZ2       -4.1510    4.6550   10.9180 C.ar  317  TRP317      0.0191
    108  CZ3       -5.7000    6.5150   11.1690 C.ar  317  TRP317      0.0001
    109  CH2       -4.4570    5.9940   10.7640 C.ar  317  TRP317      0.0015
    110  N         -4.5750   17.0940   13.8670 N.3   344  GLU344     -0.1245
    111  CA        -5.1530   16.1510   12.9110 C.3   344  GLU344      0.1567
    112  C         -6.2320   15.3480   13.6200 C.2   344  GLU344      0.2260
    113  O         -6.0360   14.9190   14.7400 O.2   344  GLU344     -0.2867
    114  CB        -4.1270   15.1280   12.3780 C.3   344  GLU344      0.0388
    115  CG        -2.9950   15.7410   11.6170 C.3   344  GLU344      0.1160
    116  CD        -1.9730   14.7100   11.1110 C.2   344  GLU344      0.3649
    117  OE1       -2.3290   13.5110   10.9660 O.co2 344  GLU344     -0.2457
    118  OE2       -0.8440   15.1420   10.8580 O.co2 344  GLU344     -0.2457
    119  N         -7.8100   16.1950    9.2130 N.3   391  TRP391     -0.1241
    120  CA        -6.9610   15.4430    8.2600 C.3   391  TRP391      0.1605
    121  C         -7.9310   14.6870    7.3760 C.2   391  TRP391      0.2264
    122  O         -8.6720   13.8240    7.8880 O.2   391  TRP391     -0.2867
    123  CB        -6.0410   14.4110    8.9580 C.3   391  TRP391      0.0550
    124  CG        -5.1210   13.7830    7.9180 C.ar  391  TRP391      0.0003
    125  CD1       -5.3600   12.6800    7.1680 C.ar  391  TRP391      0.0946
    126  CD2       -3.8640   14.3120    7.4790 C.ar  391  TRP391      0.0152
    127  NE1       -4.3180   12.4680    6.2620 N.ar  391  TRP391     -0.2442
    128  CE2       -3.3870   13.4620    6.4370 C.ar  391  TRP391      0.0810
    129  CE3       -3.1130   15.4410    7.8330 C.ar  391  TRP391      0.0012
    130  CZ2       -2.1650   13.6890    5.7650 C.ar  391  TRP391      0.0191
    131  CZ3       -1.8760   15.6610    7.1620 C.ar  391  TRP391      0.0001
    132  CH2       -1.4280   14.7870    6.1480 C.ar  391  TRP391      0.0015
    133  N         -1.2220    7.8080    1.1850 N.3   398  GLU398     -0.1231
    134  CA        -1.3010    7.4530    2.5900 C.3   398  GLU398      0.1699
    135  C         -0.1120    6.5170    2.9110 C.2   398  GLU398      0.2592
    136  O         -0.3020    5.3780    3.2620 O.2   398  GLU398     -0.2718
    137  CB        -2.6770    6.8040    2.8890 C.3   398  GLU398      0.0402
    138  CG        -2.9010    6.3070    4.3940 C.3   398  GLU398      0.1161
    139  CD        -2.5170    7.3400    5.4300 C.2   398  GLU398      0.3649
    140  OE1       -2.8270    8.5390    5.2370 O.co2 398  GLU398     -0.2457
    141  OE2       -1.8900    6.9500    6.4450 O.co2 398  GLU398     -0.2457
    142  N          1.1180    7.0190    2.7120 N.am  399  TRP399     -0.1976
    143  CA         2.3360    6.3120    3.1410 C.3   399  TRP399      0.1640
    144  C          2.3720    4.8900    2.5820 C.2   399  TRP399      0.2290
    145  O          2.1780    4.7150    1.3790 O.2   399  TRP399     -0.2864
    146  CB         2.4880    6.4120    4.6850 C.3   399  TRP399      0.0576
    147  CG         2.4430    7.8890    5.1270 C.ar  399  TRP399      0.0006
    148  CD1        1.5040    8.4910    5.9420 C.ar  399  TRP399      0.0946
    149  CD2        3.3320    8.9410    4.6990 C.ar  399  TRP399      0.0152
    150  NE1        1.7910    9.8550    6.0770 N.ar  399  TRP399     -0.2442
    151  CE2        2.9010   10.1460    5.3210 C.ar  399  TRP399      0.0810
    152  CE3        4.4670    8.9820    3.8530 C.ar  399  TRP399      0.0012
    153  CZ2        3.5720   11.3660    5.1360 C.ar  399  TRP399      0.0191
    154  CZ3        5.1360   10.1980    3.6850 C.ar  399  TRP399      0.0001
    155  CH2        4.6730   11.3720    4.3080 C.ar  399  TRP399      0.0015
    156  N         -8.6400    9.9920    2.9390 N.3   407  PHE407     -0.1241
    157  CA        -8.9290   10.7760    4.1460 C.3   407  PHE407      0.1605
    158  C         -9.4820   12.1860    3.8830 C.2   407  PHE407      0.2264
    159  O         -9.7320   12.9120    4.8290 O.2   407  PHE407     -0.2867
    160  CB        -7.6390   10.9940    4.9450 C.3   407  PHE407      0.0534
    161  CG        -7.3000    9.8880    5.8690 C.ar  407  PHE407     -0.0203
    162  CD1       -6.4530    8.8500    5.4720 C.ar  407  PHE407     -0.0042
    163  CD2       -7.8150    9.8840    7.1680 C.ar  407  PHE407     -0.0042
    164  CE1       -6.1000    7.8320    6.3890 C.ar  407  PHE407     -0.0003
    165  CE2       -7.4760    8.8780    8.0660 C.ar  407  PHE407     -0.0003
    166  CZ        -6.6190    7.8610    7.6860 C.ar  407  PHE407     -0.0000
@<TRIPOS>BOND
     1     4     3    2
     2     3     2    1
     3     2     1    1
     4     2     5    1
     5   133   134    1
     6   145   144    2
     7     5     6    1
     8   144   143    1
     9   134   137    1
    10   134   135    1
    11   142   135   am
    12   142   143    1
    13     6     7    1
    14   137   138    1
    15   135   136    2
    16   156   157    1
    17   143   146    1
    18   154   152   ar
    19   154   155   ar
    20   152   149   ar
    21   158   157    1
    22   158   159    2
    23     9     7   am
    24     7     8    2
    25   157   160    1
    26   155   153   ar
    27   138   139    1
    28   146   147    1
    29   149   147   ar
    30   149   151   ar
    31   160   161    1
    32   147   148   ar
    33   153   151   ar
    34   140   139   ar
    35   151   150   ar
    36   139   141   ar
    37   162   161   ar
    38   162   164   ar
    39   130   132   ar
    40   130   128   ar
    41   161   163   ar
    42   148   150   ar
    43    23    22    2
    44    22    21    1
    45   132   131   ar
    46   127   128   ar
    47   127   125   ar
    48    13    12    2
    49   164   166   ar
    50   128   126   ar
    51    60    59    1
    52    60    61    2
    53    94    95    1
    54    94    93    1
    55    59    58    1
    56    59    62    1
    57   131   129   ar
    58   125   124   ar
    59   163   165   ar
    60    24    21    1
    61    24    25    1
    62    12    20   am
    63    12    11    1
    64    65    67   ar
    65    65    63   ar
    66   121   122    2
    67   121   120    1
    68    21    20    1
    69   126   129   ar
    70   126   124   ar
    71    88    89    1
    72    14    15    1
    73    14    11    1
    74   166   165   ar
    75    17    15   ar
    76    17    19   ar
    77    30    32   ar
    78    30    27   ar
    79    67    66   ar
    80    62    63    1
    81    63    64   ar
    82   124   123    1
    83    15    16   ar
    84    93    92    1
    85    89    92    1
    86    89    90    1
    87    11    10    1
    88    32    33   ar
    89    19    18   ar
    90   120   123    1
    91   120   119    1
    92    16    18   ar
    93    25    27   ar
    94    25    26   ar
    95    27    29   ar
    96    66    64   ar
    97    90    91    2
    98    33    31   ar
    99    26    28   ar
   100    29    31   ar
   101    29    28   ar
   102   109   107   ar
   103   109   108   ar
   104    87    86    1
   105   118   116   ar
   106   107   105   ar
   107   117   116   ar
   108   116   115    1
   109   108   106   ar
   110    41    39   am
   111    85    86   ar
   112    85    83   ar
   113   105   104   ar
   114   105   103   ar
   115   115   114    1
   116    86    84   ar
   117   104   102   ar
   118   106   103   ar
   119    38    39    1
   120    38    35    1
   121    39    40    2
   122   103   101   ar
   123    56    55    1
   124    96    97    1
   125    83    81   ar
   126   102   101   ar
   127   114   111    1
   128   101   100    1
   129    84    82   ar
   130    37    36    2
   131    54    53    2
   132   111   112    1
   133   111   110    1
   134    49    48   ar
   135   100    97    1
   136    34    35    1
   137    35    36    1
   138    99    98    2
   139    97    98    1
   140    55    57    1
   141    55    52    1
   142    81    82   ar
   143    81    80    1
   144    50    48   ar
   145    53    52    1
   146    48    47    1
   147    36    42   am
   148   112   113    2
   149    80    77    1
   150    52    51    1
   151    46    47    1
   152    46    43    1
   153    45    44    2
   154    42    43    1
   155    43    44    1
   156    77    78    1
   157    77    76    1
   158    79    78    2
   159    72    73    1
   160    72    69    1
   161    74    73    2
   162    73    75   am
   163    69    68    1
   164    69    70    1
   165    70    71    2
