@<TRIPOS>MOLECULE
tmp/2vrjB00.pdb
 206 206 0 0 0
SMALL
GASTEIGER

@<TRIPOS>ATOM
      1  N        -16.8590  -32.3860  -14.7670 N.3    18  GLN18      -0.1245
      2  CA       -17.5060  -31.0760  -14.6740 C.3    18  GLN18       0.1566
      3  C        -17.0420  -30.0780  -15.7730 C.2    18  GLN18       0.2260
      4  O        -17.7960  -29.1750  -16.1530 O.2    18  GLN18      -0.2867
      5  CB       -17.3160  -30.4830  -13.2890 C.3    18  GLN18       0.0367
      6  CG       -17.9870  -31.3190  -12.2040 C.3    18  GLN18       0.0905
      7  CD       -18.0140  -30.6650  -10.8530 C.2    18  GLN18       0.2608
      8  OE1      -17.2170  -31.0090   -9.9790 O.2    18  GLN18      -0.2717
      9  NE2      -18.9470  -29.7520  -10.6470 N.am   18  GLN18      -0.0878
     10  N        -12.9270  -38.2130   -8.4830 N.3   119  HIS119     -0.1226
     11  CA       -13.9390  -37.1720   -8.2920 C.3   119  HIS119      0.1752
     12  C        -15.2400  -37.5550   -8.9910 C.2   119  HIS119      0.2596
     13  O        -15.8310  -36.7570   -9.7500 O.2   119  HIS119     -0.2718
     14  CB       -13.4170  -35.8130   -8.8030 C.3   119  HIS119      0.0759
     15  CG       -14.0720  -34.6290   -8.1780 C.ar  119  HIS119      0.0818
     16  ND1      -13.3470  -33.6270   -7.5680 N.ar  119  HIS119     -0.2268
     17  CD2      -15.3690  -34.2620   -8.0880 C.ar  119  HIS119      0.1154
     18  CE1      -14.1770  -32.7160   -7.0960 C.ar  119  HIS119      0.1986
     19  NE2      -15.4110  -33.0700   -7.4130 N.ar  119  HIS119     -0.2212
     20  N        -15.6630  -38.8160   -8.7320 N.am  120  TRP120     -0.1976
     21  CA       -17.0450  -39.2760   -8.8910 C.3   120  TRP120      0.1640
     22  C        -17.3810  -39.9400  -10.2200 C.2   120  TRP120      0.2290
     23  O        -18.5020  -40.4360  -10.3730 O.2   120  TRP120     -0.2864
     24  CB       -18.0970  -38.1820   -8.6210 C.3   120  TRP120      0.0576
     25  CG       -17.9930  -37.3810   -7.3400 C.ar  120  TRP120      0.0006
     26  CD1      -17.1420  -37.5910   -6.2770 C.ar  120  TRP120      0.0946
     27  CD2      -18.8190  -36.2650   -6.9760 C.ar  120  TRP120      0.0152
     28  NE1      -17.3830  -36.6540   -5.2850 N.ar  120  TRP120     -0.2442
     29  CE2      -18.4080  -35.8360   -5.6840 C.ar  120  TRP120      0.0810
     30  CE3      -19.8710  -35.5930   -7.6070 C.ar  120  TRP120      0.0012
     31  CZ2      -18.9990  -34.7400   -5.0230 C.ar  120  TRP120      0.0191
     32  CZ3      -20.4710  -34.5050   -6.9470 C.ar  120  TRP120      0.0001
     33  CH2      -20.0310  -34.0950   -5.6530 C.ar  120  TRP120      0.0015
     34  N        -12.4630  -37.5900   -3.4550 N.3   163  ASN163     -0.1225
     35  CA       -13.2390  -36.3960   -3.1840 C.3   163  ASN163      0.1785
     36  C        -14.6180  -36.6570   -2.5790 C.2   163  ASN163      0.2597
     37  O        -15.4970  -37.1970   -3.2530 O.2   163  ASN163     -0.2718
     38  CB       -13.3710  -35.5010   -4.4360 C.3   163  ASN163      0.1169
     39  CG       -14.1660  -34.2350   -4.1600 C.2   163  ASN163      0.2627
     40  OD1      -13.6480  -33.2820   -3.5680 O.2   163  ASN163     -0.2716
     41  ND2      -15.4210  -34.2240   -4.5620 N.am  163  ASN163     -0.0877
     42  N        -14.7940  -36.2220   -1.3270 N.am  164  GLU164     -0.1979
     43  CA       -16.0850  -36.1440   -0.6520 C.3   164  GLU164      0.1602
     44  C        -16.7960  -37.5120   -0.7180 C.2   164  GLU164      0.2287
     45  O        -17.8650  -37.6240   -1.2970 O.2   164  GLU164     -0.2864
     46  CB       -16.9870  -35.0680   -1.2670 C.3   164  GLU164      0.0415
     47  CG       -16.4570  -33.6290   -1.0390 C.3   164  GLU164      0.1163
     48  CD       -17.3710  -32.5250   -1.6000 C.2   164  GLU164      0.3649
     49  OE1      -18.2350  -32.7910   -2.4660 O.co2 164  GLU164     -0.2457
     50  OE2      -17.2200  -31.3640   -1.1490 O.co2 164  GLU164     -0.2457
     51  N        -18.5280  -38.9310    1.4180 N.3   166  TRP166     -0.1227
     52  CA       -19.8780  -38.8540    1.9770 C.3   166  TRP166      0.1737
     53  C        -20.8970  -38.5910    0.8700 C.2   166  TRP166      0.2595
     54  O        -21.9890  -39.1900    0.8540 O.2   166  TRP166     -0.2718
     55  CB       -20.0280  -37.7700    3.0570 C.3   166  TRP166      0.0564
     56  CG       -21.4010  -37.7300    3.6560 C.ar  166  TRP166      0.0003
     57  CD1      -21.8260  -38.4000    4.7760 C.ar  166  TRP166      0.0946
     58  CD2      -22.5370  -37.0060    3.1740 C.ar  166  TRP166      0.0152
     59  NE1      -23.1380  -38.1260    5.0160 N.ar  166  TRP166     -0.2442
     60  CE2      -23.6020  -37.2790    4.0480 C.ar  166  TRP166      0.0810
     61  CE3      -22.7550  -36.1590    2.0770 C.ar  166  TRP166      0.0012
     62  CZ2      -24.8780  -36.7460    3.8640 C.ar  166  TRP166      0.0191
     63  CZ3      -24.0180  -35.6130    1.9000 C.ar  166  TRP166      0.0001
     64  CH2      -25.0590  -35.8950    2.7910 C.ar  166  TRP166      0.0015
     65  N        -20.5540  -37.6700   -0.0340 N.am  167  VAL167     -0.1980
     66  CA       -21.4560  -37.3510   -1.1490 C.3   167  VAL167      0.1595
     67  C        -21.5740  -38.5910   -2.0370 C.2   167  VAL167      0.2287
     68  O        -22.6910  -39.0370   -2.3520 O.2   167  VAL167     -0.2864
     69  CB       -20.9530  -36.1480   -1.9660 C.3   167  VAL167      0.0276
     70  CG1      -21.8340  -35.9680   -3.2020 C.3   167  VAL167      0.0022
     71  CG2      -20.9790  -34.8540   -1.0790 C.3   167  VAL167      0.0022
     72  N        -25.2900  -39.4020   -1.2750 N.3   171  VAL171     -0.1245
     73  CA       -26.0640  -38.7260   -2.2910 C.3   171  VAL171      0.1561
     74  C        -26.2320  -39.6480   -3.5120 C.2   171  VAL171      0.2260
     75  O        -27.3060  -39.6730   -4.1240 O.2   171  VAL171     -0.2867
     76  CB       -25.4610  -37.3400   -2.6740 C.3   171  VAL171      0.0252
     77  CG1      -26.3300  -36.6430   -3.7280 C.3   171  VAL171      0.0019
     78  CG2      -25.3310  -36.4590   -1.4390 C.3   171  VAL171      0.0019
     79  N        -29.7900  -41.0850   -1.4000 N.3   175  TYR175     -0.1241
     80  CA       -30.7390  -40.1060   -1.9170 C.3   175  TYR175      0.1605
     81  C        -31.0270  -40.3330   -3.3770 C.2   175  TYR175      0.2264
     82  O        -32.0850  -39.9250   -3.8430 O.2   175  TYR175     -0.2867
     83  CB       -30.2220  -38.6840   -1.7480 C.3   175  TYR175      0.0534
     84  CG       -29.8730  -38.3040   -0.3320 C.ar  175  TYR175     -0.0201
     85  CD1      -30.4900  -38.8960    0.7520 C.ar  175  TYR175     -0.0009
     86  CD2      -28.9280  -37.3150   -0.0990 C.ar  175  TYR175     -0.0009
     87  CE1      -30.1700  -38.5180    2.0640 C.ar  175  TYR175      0.0417
     88  CE2      -28.6040  -36.9260    1.1930 C.ar  175  TYR175      0.0417
     89  CZ       -29.2300  -37.5400    2.2670 C.ar  175  TYR175      0.1957
     90  OH       -28.8880  -37.1580    3.5380 O.3   175  TYR175     -0.2866
     91  N        -29.6370  -38.9410   -5.9450 N.3   177  VAL177     -0.1231
     92  CA       -29.6240  -37.6430   -6.6280 C.3   177  VAL177      0.1692
     93  C        -28.3880  -37.5050   -7.4980 C.2   177  VAL177      0.2592
     94  O        -28.3750  -36.7470   -8.4910 O.2   177  VAL177     -0.2718
     95  CB       -29.7620  -36.4910   -5.5510 C.3   177  VAL177      0.0266
     96  CG1      -29.1560  -35.1800   -6.0090 C.3   177  VAL177      0.0020
     97  CG2      -31.2210  -36.3280   -5.1940 C.3   177  VAL177      0.0020
     98  N        -27.3520  -38.2640   -7.1440 N.am  178  HIS178     -0.1976
     99  CA       -26.1590  -38.3950   -7.9420 C.3   178  HIS178      0.1656
    100  C        -26.0040  -39.8340   -8.4460 C.2   178  HIS178      0.2291
    101  O        -26.5960  -40.7600   -7.8720 O.2   178  HIS178     -0.2864
    102  CB       -24.9320  -38.0820   -7.1030 C.3   178  HIS178      0.0771
    103  CG       -24.7320  -36.6310   -6.8220 C.ar  178  HIS178      0.0820
    104  ND1      -23.6410  -36.1730   -6.1180 N.ar  178  HIS178     -0.2267
    105  CD2      -25.4620  -35.5340   -7.1530 C.ar  178  HIS178      0.1154
    106  CE1      -23.7160  -34.8570   -6.0100 C.ar  178  HIS178      0.1986
    107  NE2      -24.7960  -34.4410   -6.6480 N.ar  178  HIS178     -0.2212
    108  N        -16.2790  -33.2290    2.4100 N.3   220  ASN220     -0.1240
    109  CA       -17.2320  -32.1550    2.5060 C.3   220  ASN220      0.1653
    110  C        -17.5480  -31.9050    3.9670 C.2   220  ASN220      0.2266
    111  O        -17.4530  -32.8150    4.8190 O.2   220  ASN220     -0.2867
    112  CB       -18.5350  -32.4570    1.7420 C.3   220  ASN220      0.1155
    113  CG       -19.1580  -33.7690    2.1510 C.2   220  ASN220      0.2627
    114  OD1      -18.6890  -34.8230    1.7380 O.2   220  ASN220     -0.2716
    115  ND2      -20.2040  -33.7150    2.9800 N.am  220  ASN220     -0.0877
    116  N        -18.4160  -24.8370    2.1970 N.3   293  TYR293     -0.1241
    117  CA       -19.3000  -23.9260    1.4750 C.3   293  TYR293      0.1605
    118  C        -20.2800  -23.1770    2.3430 C.2   293  TYR293      0.2264
    119  O        -20.4300  -21.9660    2.2060 O.2   293  TYR293     -0.2867
    120  CB       -20.0940  -24.6800    0.3890 C.3   293  TYR293      0.0534
    121  CG       -19.1910  -25.1380   -0.7010 C.ar  293  TYR293     -0.0201
    122  CD1      -18.7810  -24.2540   -1.6910 C.ar  293  TYR293     -0.0009
    123  CD2      -18.7100  -26.4480   -0.7320 C.ar  293  TYR293     -0.0009
    124  CE1      -17.9290  -24.6560   -2.6950 C.ar  293  TYR293      0.0417
    125  CE2      -17.8510  -26.8520   -1.7280 C.ar  293  TYR293      0.0417
    126  CZ       -17.4800  -25.9540   -2.7150 C.ar  293  TYR293      0.1957
    127  OH       -16.6270  -26.3200   -3.7130 O.3   293  TYR293     -0.2866
    128  N        -27.0880  -21.4280   -5.1740 N.3   320  MET320     -0.1245
    129  CA       -27.3980  -22.7870   -4.6940 C.3   320  MET320      0.1570
    130  C        -28.3900  -22.8150   -3.5360 C.2   320  MET320      0.2261
    131  O        -28.8980  -23.8760   -3.1760 O.2   320  MET320     -0.2867
    132  CB       -26.1340  -23.4960   -4.2300 C.3   320  MET320      0.0387
    133  CG       -25.0000  -23.5310   -5.2070 C.3   320  MET320      0.0595
    134  SD       -25.2750  -24.5940   -6.6330 S.3   320  MET320     -0.1393
    135  CE       -25.8490  -26.1430   -5.9230 C.3   320  MET320      0.0692
    136  N        -27.3510  -21.8970   -0.5960 N.3   322  TRP322     -0.1241
    137  CA       -26.4680  -22.1540    0.5360 C.3   322  TRP322      0.1605
    138  C        -26.0650  -20.8700    1.2600 C.2   322  TRP322      0.2264
    139  O        -25.6150  -19.8970    0.6500 O.2   322  TRP322     -0.2867
    140  CB       -25.2080  -22.8720    0.0760 C.3   322  TRP322      0.0550
    141  CG       -25.4430  -24.1550   -0.6440 C.ar  322  TRP322      0.0003
    142  CD1      -26.5900  -24.9060   -0.6630 C.ar  322  TRP322      0.0946
    143  CD2      -24.4860  -24.8580   -1.4200 C.ar  322  TRP322      0.0152
    144  NE1      -26.4070  -26.0280   -1.4400 N.ar  322  TRP322     -0.2442
    145  CE2      -25.1180  -26.0320   -1.9010 C.ar  322  TRP322      0.0810
    146  CE3      -23.1460  -24.6190   -1.7540 C.ar  322  TRP322      0.0012
    147  CZ2      -24.4620  -26.9480   -2.7040 C.ar  322  TRP322      0.0191
    148  CZ3      -22.4910  -25.5440   -2.5520 C.ar  322  TRP322      0.0001
    149  CH2      -23.1570  -26.6960   -3.0180 C.ar  322  TRP322      0.0015
    150  N        -11.4120  -27.0220   -1.4780 N.3   349  GLU349     -0.1245
    151  CA       -12.4600  -26.3450   -2.2360 C.3   349  GLU349      0.1567
    152  C        -13.1440  -25.3540   -1.3360 C.2   349  GLU349      0.2260
    153  O        -13.4790  -25.6890   -0.2040 O.2   349  GLU349     -0.2867
    154  CB       -13.5610  -27.3110   -2.6960 C.3   349  GLU349      0.0388
    155  CG       -13.1680  -28.2240   -3.7940 C.3   349  GLU349      0.1160
    156  CD       -14.2860  -29.1480   -4.2100 C.2   349  GLU349      0.3649
    157  OE1      -15.4710  -28.8100   -3.9990 O.co2 349  GLU349     -0.2457
    158  OE2      -13.9280  -30.1970   -4.7700 O.co2 349  GLU349     -0.2457
    159  N        -13.0010  -23.1070   -5.4420 N.3   396  TRP396     -0.1241
    160  CA       -13.8800  -23.7740   -6.3840 C.3   396  TRP396      0.1605
    161  C        -14.7940  -22.7190   -6.9800 C.2   396  TRP396      0.2264
    162  O        -15.6350  -22.1570   -6.2590 O.2   396  TRP396     -0.2867
    163  CB       -14.7180  -24.8750   -5.7280 C.3   396  TRP396      0.0550
    164  CG       -15.5530  -25.5960   -6.7500 C.ar  396  TRP396      0.0003
    165  CD1      -16.7890  -25.2410   -7.1990 C.ar  396  TRP396      0.0946
    166  CD2      -15.1940  -26.7800   -7.4490 C.ar  396  TRP396      0.0152
    167  NE1      -17.2240  -26.1260   -8.1620 N.ar  396  TRP396     -0.2442
    168  CE2      -16.2550  -27.0810   -8.3380 C.ar  396  TRP396      0.0810
    169  CE3      -14.0700  -27.6070   -7.4290 C.ar  396  TRP396      0.0012
    170  CZ2      -16.2350  -28.1920   -9.1690 C.ar  396  TRP396      0.0191
    171  CZ3      -14.0420  -28.7050   -8.2660 C.ar  396  TRP396      0.0001
    172  CH2      -15.1120  -28.9790   -9.1360 C.ar  396  TRP396      0.0015
    173  N        -22.5800  -28.4090  -12.9380 N.3   403  GLU403     -0.1231
    174  CA       -22.8430  -28.5300  -11.5130 C.3   403  GLU403      0.1699
    175  C        -23.7640  -29.7270  -11.2530 C.2   403  GLU403      0.2592
    176  O        -24.8750  -29.5890  -10.7720 O.2   403  GLU403     -0.2718
    177  CB       -23.4180  -27.2180  -10.9410 C.3   403  GLU403      0.0402
    178  CG       -23.7530  -27.2340   -9.4190 C.3   403  GLU403      0.1161
    179  CD       -22.6050  -27.7430   -8.5300 C.2   403  GLU403      0.3649
    180  OE1      -21.4200  -27.4900   -8.8480 O.co2 403  GLU403     -0.2457
    181  OE2      -22.8990  -28.4130   -7.5050 O.co2 403  GLU403     -0.2457
    182  N        -23.3010  -30.9060  -11.6440 N.am  404  TRP404     -0.1976
    183  CA       -24.0030  -32.1590  -11.3390 C.3   404  TRP404      0.1640
    184  C        -25.5220  -32.1380  -11.6690 C.2   404  TRP404      0.2290
    185  O        -25.8720  -31.8050  -12.8140 O.2   404  TRP404     -0.2864
    186  CB       -23.6700  -32.5720   -9.8980 C.3   404  TRP404      0.0576
    187  CG       -22.1790  -32.6030   -9.6510 C.ar  404  TRP404      0.0006
    188  CD1      -21.4680  -31.7950   -8.7930 C.ar  404  TRP404      0.0946
    189  CD2      -21.2100  -33.4490  -10.2890 C.ar  404  TRP404      0.0152
    190  NE1      -20.1370  -32.1050   -8.8510 N.ar  404  TRP404     -0.2442
    191  CE2      -19.9490  -33.1170   -9.7560 C.ar  404  TRP404      0.0810
    192  CE3      -21.2850  -34.4580  -11.2580 C.ar  404  TRP404      0.0012
    193  CZ2      -18.7810  -33.7830  -10.1270 C.ar  404  TRP404      0.0191
    194  CZ3      -20.1240  -35.1090  -11.6350 C.ar  404  TRP404      0.0001
    195  CH2      -18.8810  -34.7570  -11.0830 C.ar  404  TRP404      0.0015
    196  N        -19.9430  -21.4190  -10.6130 N.3   412  PHE412     -0.1241
    197  CA       -19.0390  -21.3720   -9.4530 C.3   412  PHE412      0.1605
    198  C        -17.7100  -20.7020   -9.7940 C.2   412  PHE412      0.2264
    199  O        -16.9270  -20.3970   -8.9050 O.2   412  PHE412     -0.2867
    200  CB       -18.7620  -22.8020   -8.9160 C.3   412  PHE412      0.0534
    201  CG       -19.7080  -23.2560   -7.8330 C.ar  412  PHE412     -0.0203
    202  CD1      -20.9000  -23.8960   -8.1500 C.ar  412  PHE412     -0.0042
    203  CD2      -19.3920  -23.0720   -6.4900 C.ar  412  PHE412     -0.0042
    204  CE1      -21.7660  -24.3190   -7.1510 C.ar  412  PHE412     -0.0003
    205  CE2      -20.2500  -23.4930   -5.4860 C.ar  412  PHE412     -0.0003
    206  CZ       -21.4360  -24.1220   -5.8100 C.ar  412  PHE412     -0.0000
@<TRIPOS>BOND
     1     4     3    2
     2     3     2    1
     3     1     2    1
     4     2     5    1
     5     5     6    1
     6   173   174    1
     7   185   184    2
     8     6     7    1
     9   184   183    1
    10   182   183    1
    11   182   175   am
    12   194   192   ar
    13   194   195   ar
    14   174   175    1
    15   174   177    1
    16   183   186    1
    17   192   189   ar
    18   175   176    2
    19   195   193   ar
    20   177   178    1
    21     7     9   am
    22     7     8    2
    23   196   197    1
    24    23    22    2
    25   189   191   ar
    26   189   187   ar
    27    22    21    1
    28   193   191   ar
    29   186   187    1
    30   198   197    1
    31   198   199    2
    32   191   190   ar
    33    13    12    2
    34   187   188   ar
    35   197   200    1
    36   178   179    1
    37   170   172   ar
    38   170   168   ar
    39   172   171   ar
    40    12    20   am
    41    12    11    1
    42   200   201    1
    43    21    20    1
    44    21    24    1
    45   190   188   ar
    46   180   179   ar
    47    14    11    1
    48    14    15    1
    49    24    25    1
    50   179   181   ar
    51    94    93    2
    52    10    11    1
    53   100    99    1
    54   100   101    2
    55   168   167   ar
    56   168   166   ar
    57   171   169   ar
    58    15    17   ar
    59    15    16   ar
    60   167   165   ar
    61   202   201   ar
    62   202   204   ar
    63    17    19   ar
    64    99    98    1
    65    99   102    1
    66   201   203   ar
    67    30    27   ar
    68    30    32   ar
    69    16    18   ar
    70    93    98   am
    71    93    92    1
    72   166   169   ar
    73   166   164   ar
    74    19    18   ar
    75    25    27   ar
    76    25    26   ar
    77   165   164   ar
    78   105   103   ar
    79   105   107   ar
    80   204   206   ar
    81   102   103    1
    82   161   160    1
    83   161   162    2
    84    27    29   ar
    85    32    33   ar
    86   103   104   ar
    87   164   163    1
    88   107   106   ar
    89   134   135    1
    90   134   133    1
    91    92    91    1
    92    92    95    1
    93   203   205   ar
    94   160   163    1
    95   160   159    1
    96    26    28   ar
    97   104   106   ar
    98    96    95    1
    99   206   205   ar
   100    29    28   ar
   101    29    31   ar
   102    33    31   ar
   103    95    97    1
   104   133   132    1
   105   128   129    1
   106   158   156   ar
   107   129   132    1
   108   129   130    1
   109    41    39   am
   110    38    39    1
   111    38    35    1
   112   156   157   ar
   113   156   155    1
   114    39    40    2
   115    75    74    2
   116    82    81    2
   117   155   154    1
   118    77    76    1
   119   127   126    1
   120   130   131    2
   121    74    73    1
   122    34    35    1
   123    81    80    1
   124    37    36    2
   125    70    69    1
   126    35    36    1
   127   149   147   ar
   128   149   148   ar
   129   126   124   ar
   130   126   125   ar
   131   147   145   ar
   132   154   151    1
   133   124   122   ar
   134    76    73    1
   135    76    78    1
   136    36    42   am
   137   148   146   ar
   138    49    48   ar
   139    68    67    2
   140    73    72    1
   141   151   150    1
   142   151   152    1
   143    67    66    1
   144    69    66    1
   145    69    71    1
   146    80    83    1
   147    80    79    1
   148   145   144   ar
   149   145   143   ar
   150   146   143   ar
   151    83    84    1
   152   125   123   ar
   153   122   121   ar
   154    48    50   ar
   155    48    47    1
   156   144   142   ar
   157   143   141   ar
   158   152   153    2
   159    42    43    1
   160    45    44    2
   161    46    47    1
   162    46    43    1
   163    66    65    1
   164   123   121   ar
   165    44    43    1
   166   121   120    1
   167   142   141   ar
   168   141   140    1
   169   136   137    1
   170    84    86   ar
   171    84    85   ar
   172    86    88   ar
   173    65    53   am
   174   140   137    1
   175   120   117    1
   176   137   138    1
   177   139   138    2
   178    85    87   ar
   179    54    53    2
   180    53    52    1
   181    88    89   ar
   182    51    52    1
   183   117   116    1
   184   117   118    1
   185   114   113    2
   186   112   113    1
   187   112   109    1
   188    63    61   ar
   189    63    64   ar
   190    52    55    1
   191    87    89   ar
   192    61    58   ar
   193   113   115   am
   194   119   118    2
   195    89    90    1
   196   108   109    1
   197   109   110    1
   198    64    62   ar
   199    55    56    1
   200    58    56   ar
   201    58    60   ar
   202    56    57   ar
   203    62    60   ar
   204   110   111    2
   205    60    59   ar
   206    57    59   ar
