@<TRIPOS>MOLECULE
tmp/2vrlB01.pdb
 125 120 0 0 0
SMALL
GASTEIGER

@<TRIPOS>ATOM
      1  N         24.5890  118.8540   16.2230 N.3    55  GLY55      -0.1210
      2  CA        24.7480  120.2870   16.0060 C.3    55  GLY55       0.1956
      3  C         23.3860  120.9390   15.8310 C.2    55  GLY55       0.2612
      4  O         22.4260  120.5710   16.5270 O.2    55  GLY55      -0.2717
      5  N         23.2930  121.9070   14.9160 N.am   56  GLY56      -0.1942
      6  CA        22.0010  122.5320   14.5890 C.3    56  GLY56       0.2014
      7  C         20.9010  121.5390   14.2200 C.2    56  GLY56       0.2640
      8  O         21.1390  120.5760   13.4970 O.2    56  GLY56      -0.2714
      9  N         19.6860  121.7950   14.7080 N.am   57  SER57      -0.1935
     10  CA        18.6040  120.8170   14.6500 C.3    57  SER57       0.2055
     11  C         17.1750  121.3830   14.4540 C.2    57  SER57       0.2643
     12  O         16.3740  120.8270   13.6940 O.2    57  SER57      -0.2714
     13  CB        18.6660  119.9460   15.9130 C.3    57  SER57       0.2130
     14  OG        17.8520  118.7850   15.7650 O.3    57  SER57      -0.2179
     15  N         16.8530  122.4570   15.1740 N.am   58  TYR58      -0.1973
     16  CA        15.4840  122.9810   15.2370 C.3    58  TYR58       0.1639
     17  C         15.1890  123.9870   14.1440 C.2    58  TYR58       0.2290
     18  O         16.0610  124.7900   13.7620 O.2    58  TYR58      -0.2864
     19  CB        15.1670  123.5610   16.6260 C.3    58  TYR58       0.0560
     20  CG        15.3600  122.5420   17.7130 C.ar   58  TYR58      -0.0198
     21  CD1       16.5180  122.5460   18.4880 C.ar   58  TYR58      -0.0009
     22  CD2       14.4240  121.5220   17.9250 C.ar   58  TYR58      -0.0009
     23  CE1       16.7290  121.5760   19.4690 C.ar   58  TYR58       0.0417
     24  CE2       14.6270  120.5510   18.9100 C.ar   58  TYR58       0.0417
     25  CZ        15.7840  120.5830   19.6680 C.ar   58  TYR58       0.1957
     26  OH        16.0040  119.6320   20.6290 O.3    58  TYR58      -0.2866
     27  N         21.3200  130.8040   27.0600 N.3   169  LEU169     -0.1231
     28  CA        20.7080  129.8650   26.1100 C.3   169  LEU169      0.1693
     29  C         20.6390  130.3620   24.6580 C.2   169  LEU169      0.2592
     30  O         20.8460  129.5820   23.7370 O.2   169  LEU169     -0.2718
     31  CB        19.3180  129.4470   26.5850 C.3   169  LEU169      0.0284
     32  CG        18.4980  128.4890   25.7110 C.3   169  LEU169      0.0019
     33  CD1       19.1370  127.1150   25.5940 C.3   169  LEU169      0.0001
     34  CD2       17.0570  128.3970   26.2370 C.3   169  LEU169      0.0001
     35  N         20.3490  131.6460   24.4510 N.am  170  CYS170     -0.1970
     36  CA        20.2350  132.1890   23.0970 C.3   170  CYS170      0.1712
     37  C         21.5610  132.2430   22.3600 C.2   170  CYS170      0.2296
     38  O         21.6050  131.9490   21.1680 O.2   170  CYS170     -0.2864
     39  CB        19.6210  133.5900   23.1050 C.3   170  CYS170      0.0983
     40  SG        17.8560  133.5630   23.3870 S.3   170  CYS170     -0.0798
     41  N         11.7160  133.7090   19.4650 N.3   196  ILE196     -0.1245
     42  CA        13.0070  133.0460   19.6590 C.3   196  ILE196      0.1561
     43  C         12.9360  131.8960   20.6870 C.2   196  ILE196      0.2260
     44  O         13.5490  130.8500   20.4720 O.2   196  ILE196     -0.2867
     45  CB        14.1780  134.0790   19.9020 C.3   196  ILE196      0.0252
     46  CG1       15.5390  133.4800   19.5500 C.3   196  ILE196      0.0019
     47  CG2       14.1870  134.6510   21.3030 C.3   196  ILE196      0.0019
     48  CD1       16.6870  134.4960   19.6120 C.3   196  ILE196      0.0001
     49  N         11.7900  126.5350   18.0090 N.3   204  GLN204     -0.1245
     50  CA        11.9940  125.1410   18.3750 C.3   204  GLN204      0.1566
     51  C         10.7950  124.2460   18.0520 C.2   204  GLN204      0.2260
     52  O         10.6640  123.1760   18.6300 O.2   204  GLN204     -0.2867
     53  CB        12.3800  124.9870   19.8640 C.3   204  GLN204      0.0367
     54  CG        13.7880  125.4690   20.2420 C.3   204  GLN204      0.0905
     55  CD        13.9220  126.9910   20.1840 C.2   204  GLN204      0.2608
     56  OE1       14.6720  127.5380   19.3480 O.2   204  GLN204     -0.2717
     57  NE2       13.1730  127.6870   21.0450 N.am  204  GLN204     -0.0878
     58  N         26.4210  119.8040   23.4550 N.3   294  LYS294     -0.1245
     59  CA        25.1040  119.2160   23.2590 C.3   294  LYS294      0.1561
     60  C         25.1190  117.7520   23.7140 C.2   294  LYS294      0.2260
     61  O         25.9590  116.9830   23.2490 O.2   294  LYS294     -0.2867
     62  CB        24.6820  119.3210   21.7960 C.3   294  LYS294      0.0271
     63  CG        23.2440  118.8260   21.5520 C.3   294  LYS294      0.0035
     64  CD        22.7210  119.3470   20.2570 C.3   294  LYS294      0.0206
     65  CE        21.3600  118.7510   19.9510 C.3   294  LYS294      0.1093
     66  NZ        20.6140  119.6580   19.0810 N.3   294  LYS294     -0.1314
     67  N         18.7100  123.9460   30.1990 N.3   324  TYR324     -0.1241
     68  CA        17.5670  123.8110   29.3000 C.3   324  TYR324      0.1605
     69  C         17.5700  122.4560   28.6030 C.2   324  TYR324      0.2264
     70  O         18.5990  122.0170   28.1120 O.2   324  TYR324     -0.2867
     71  CB        17.5650  124.9520   28.2690 C.3   324  TYR324      0.0534
     72  CG        16.2820  125.0900   27.4810 C.ar  324  TYR324     -0.0201
     73  CD1       15.1370  125.6340   28.0730 C.ar  324  TYR324     -0.0009
     74  CD2       16.2140  124.6990   26.1450 C.ar  324  TYR324     -0.0009
     75  CE1       13.9520  125.7740   27.3540 C.ar  324  TYR324      0.0417
     76  CE2       15.0380  124.8420   25.4090 C.ar  324  TYR324      0.0417
     77  CZ        13.9110  125.3710   26.0240 C.ar  324  TYR324      0.1957
     78  OH        12.7420  125.5130   25.3170 O.3   324  TYR324     -0.2866
     79  N         14.9910  119.5760   26.0970 N.3   326  LEU326     -0.1245
     80  CA        13.8120  119.2440   25.3120 C.3   326  LEU326      0.1561
     81  C         13.6970  117.7250   25.1530 C.2   326  LEU326      0.2260
     82  O         14.6850  117.0140   25.2170 O.2   326  LEU326     -0.2867
     83  CB        13.8780  119.9130   23.9440 C.3   326  LEU326      0.0270
     84  CG        13.7520  121.4400   23.8600 C.3   326  LEU326      0.0019
     85  CD1       14.3010  121.9210   22.5410 C.3   326  LEU326      0.0001
     86  CD2       12.3080  121.9030   24.0430 C.3   326  LEU326      0.0001
     87  N         21.5410  121.2470   26.8820 N.3   341  PHE341     -0.1241
     88  CA        22.7250  122.0340   26.5340 C.3   341  PHE341      0.1605
     89  C         23.4950  122.3950   27.7730 C.2   341  PHE341      0.2264
     90  O         22.9050  122.9070   28.7250 O.2   341  PHE341     -0.2867
     91  CB        22.3350  123.3690   25.8700 C.3   341  PHE341      0.0534
     92  CG        21.7260  123.2360   24.5040 C.ar  341  PHE341     -0.0203
     93  CD1       20.4160  123.6330   24.2850 C.ar  341  PHE341     -0.0042
     94  CD2       22.4720  122.7370   23.4340 C.ar  341  PHE341     -0.0042
     95  CE1       19.8430  123.5310   23.0180 C.ar  341  PHE341     -0.0003
     96  CE2       21.9070  122.6270   22.1640 C.ar  341  PHE341     -0.0003
     97  CZ        20.5920  123.0290   21.9510 C.ar  341  PHE341     -0.0000
     98  N         26.5710  128.3930   19.1960 N.3   396  TYR396     -0.1241
     99  CA        25.9400  128.1690   17.8930 C.3   396  TYR396      0.1605
    100  C         26.5530  129.0720   16.8350 C.2   396  TYR396      0.2264
    101  O         26.6230  128.7020   15.6420 O.2   396  TYR396     -0.2867
    102  CB        24.4160  128.4430   17.9460 C.3   396  TYR396      0.0534
    103  CG        23.7640  128.0870   19.2570 C.ar  396  TYR396     -0.0201
    104  CD1       23.9540  126.8360   19.8330 C.ar  396  TYR396     -0.0009
    105  CD2       22.9390  129.0030   19.9230 C.ar  396  TYR396     -0.0009
    106  CE1       23.3910  126.5190   21.0410 C.ar  396  TYR396      0.0417
    107  CE2       22.3620  128.6920   21.1400 C.ar  396  TYR396      0.0417
    108  CZ        22.5910  127.4480   21.6930 C.ar  396  TYR396      0.1957
    109  OH        22.0170  127.0980   22.9000 O.3   396  TYR396     -0.2866
    110  N         22.5730  133.3860   12.6870 N.3   432  GLY432     -0.1210
    111  CA        22.9180  132.4540   13.7700 C.3   432  GLY432      0.1956
    112  C         22.2790  131.0820   13.5890 C.2   432  GLY432      0.2611
    113  O         22.7160  130.1050   14.2070 O.2   432  GLY432     -0.2717
    114  N         21.2560  131.0160   12.7300 N.am  433  TYR433     -0.1976
    115  CA        20.4790  129.7910   12.4730 C.3   433  TYR433      0.1639
    116  C         20.7350  129.1810   11.0800 C.2   433  TYR433      0.2290
    117  O         21.3840  129.7990   10.2250 O.2   433  TYR433     -0.2864
    118  CB        18.9810  130.0720   12.6820 C.3   433  TYR433      0.0560
    119  CG        18.6140  130.3600   14.1310 C.ar  433  TYR433     -0.0198
    120  CD1       19.0570  131.5290   14.7700 C.ar  433  TYR433     -0.0009
    121  CD2       17.8420  129.4480   14.8690 C.ar  433  TYR433     -0.0009
    122  CE1       18.7430  131.7940   16.1070 C.ar  433  TYR433      0.0417
    123  CE2       17.5180  129.6940   16.2120 C.ar  433  TYR433      0.0417
    124  CZ        17.9710  130.8720   16.8200 C.ar  433  TYR433      0.1957
    125  OH        17.6470  131.1250   18.1330 O.3   433  TYR433     -0.2866
@<TRIPOS>BOND
     1   117   116    2
     2   116   115    1
     3   115   118    1
     4   115   114    1
     5   118   119    1
     6   110   111    1
     7   114   112   am
     8     8     7    2
     9   112   111    1
    10   112   113    2
    11    12    11    2
    12    18    17    2
    13   119   120   ar
    14   119   121   ar
    15    17    16    1
    16     7     6    1
    17     7     9   am
    18    11    10    1
    19    11    15   am
    20     6     5    1
    21    10     9    1
    22    10    13    1
    23   120   122   ar
    24   121   123   ar
    25     5     3   am
    26    15    16    1
    27    16    19    1
    28   101   100    2
    29    14    13    1
    30     3     2    1
    31     3     4    2
    32     2     1    1
    33   122   124   ar
    34   123   124   ar
    35    19    20    1
    36   124   125    1
    37   100    99    1
    38    20    22   ar
    39    20    21   ar
    40    99   102    1
    41    99    98    1
    42    22    24   ar
    43   102   103    1
    44    49    50    1
    45    51    50    1
    46    51    52    2
    47    50    53    1
    48    21    23   ar
    49    24    25   ar
    50    66    65    1
    51   103   104   ar
    52   103   105   ar
    53    56    55    2
    54    41    42    1
    55    23    25   ar
    56    46    48    1
    57    46    45    1
    58    42    45    1
    59    42    43    1
    60    25    26    1
    61   104   106   ar
    62    53    54    1
    63    45    47    1
    64   105   107   ar
    65    65    64    1
    66    55    54    1
    67    55    57   am
    68    64    63    1
    69    44    43    2
    70   106   108   ar
    71   107   108   ar
    72    38    37    2
    73    63    62    1
    74   108   109    1
    75    62    59    1
    76    97    96   ar
    77    97    95   ar
    78    96    94   ar
    79    37    36    1
    80    85    84    1
    81    95    93   ar
    82    36    39    1
    83    36    35    1
    84    39    40    1
    85    61    60    2
    86    59    58    1
    87    59    60    1
    88    94    92   ar
    89    30    29    2
    90    84    83    1
    91    84    86    1
    92    83    80    1
    93    93    92   ar
    94    35    29   am
    95    92    91    1
    96    29    28    1
    97    81    82    2
    98    81    80    1
    99    80    79    1
   100    78    77    1
   101    76    77   ar
   102    76    74   ar
   103    33    32    1
   104    32    34    1
   105    32    31    1
   106    91    88    1
   107    77    75   ar
   108    28    31    1
   109    28    27    1
   110    74    72   ar
   111    88    87    1
   112    88    89    1
   113    75    73   ar
   114    72    73   ar
   115    72    71    1
   116    89    90    2
   117    70    69    2
   118    71    68    1
   119    69    68    1
   120    68    67    1
