@<TRIPOS>MOLECULE
tmp/2vrmB01.pdb
 125 120 0 0 0
SMALL
GASTEIGER

@<TRIPOS>ATOM
      1  N         24.2490  118.4810   16.0460 N.3    55  GLY55      -0.1210
      2  CA        24.3760  119.9220   15.8560 C.3    55  GLY55       0.1956
      3  C         23.0060  120.5340   15.6780 C.2    55  GLY55       0.2612
      4  O         22.0500  120.1280   16.3350 O.2    55  GLY55      -0.2717
      5  N         22.9000  121.5010   14.7740 N.am   56  GLY56      -0.1942
      6  CA        21.5990  122.0680   14.3990 C.3    56  GLY56       0.2014
      7  C         20.5650  120.9980   14.0570 C.2    56  GLY56       0.2640
      8  O         20.8850  119.9880   13.4080 O.2    56  GLY56      -0.2714
      9  N         19.3270  121.2380   14.4870 N.am   57  SER57      -0.1935
     10  CA        18.2540  120.2480   14.4000 C.3    57  SER57       0.2055
     11  C         16.8650  120.8580   14.1820 C.2    57  SER57       0.2643
     12  O         16.1200  120.3890   13.3190 O.2    57  SER57      -0.2714
     13  CB        18.2430  119.3590   15.6510 C.3    57  SER57       0.2130
     14  OG        17.3500  118.2540   15.4900 O.3    57  SER57      -0.2179
     15  N         16.5240  121.8760   14.9820 N.am   58  TYR58      -0.1973
     16  CA        15.1690  122.4650   15.0290 C.3    58  TYR58       0.1639
     17  C         14.8670  123.4510   13.9060 C.2    58  TYR58       0.2290
     18  O         15.7370  124.2120   13.4660 O.2    58  TYR58      -0.2864
     19  CB        14.9060  123.1220   16.3910 C.3    58  TYR58       0.0560
     20  CG        15.1180  122.1400   17.5090 C.ar   58  TYR58      -0.0198
     21  CD1       16.2830  122.1740   18.2800 C.ar   58  TYR58      -0.0009
     22  CD2       14.1870  121.1200   17.7500 C.ar   58  TYR58      -0.0009
     23  CE1       16.5000  121.2240   19.2800 C.ar   58  TYR58       0.0417
     24  CE2       14.4020  120.1770   18.7300 C.ar   58  TYR58       0.0417
     25  CZ        15.5530  120.2330   19.4890 C.ar   58  TYR58       0.1957
     26  OH        15.7480  119.2930   20.4490 O.3    58  TYR58      -0.2866
     27  N         21.0340  130.3280   26.7570 N.3   169  LEU169     -0.1231
     28  CA        20.4010  129.3610   25.8590 C.3   169  LEU169      0.1693
     29  C         20.3910  129.7960   24.3930 C.2   169  LEU169      0.2592
     30  O         20.7130  128.9950   23.5190 O.2   169  LEU169     -0.2718
     31  CB        18.9750  129.0110   26.3360 C.3   169  LEU169      0.0284
     32  CG        18.1330  128.0890   25.4470 C.3   169  LEU169      0.0019
     33  CD1       18.7870  126.6880   25.2460 C.3   169  LEU169      0.0001
     34  CD2       16.7180  127.9750   26.0330 C.3   169  LEU169      0.0001
     35  N         20.0230  131.0490   24.1290 N.am  170  CYS170     -0.1970
     36  CA        19.9260  131.5500   22.7520 C.3   170  CYS170      0.1712
     37  C         21.2730  131.6660   22.0250 C.2   170  CYS170      0.2296
     38  O         21.3520  131.3860   20.8200 O.2   170  CYS170     -0.2864
     39  CB        19.2080  132.9050   22.6970 C.3   170  CYS170      0.0983
     40  SG        17.4590  132.8430   23.1300 S.3   170  CYS170     -0.0798
     41  N         11.5380  133.1840   19.2330 N.3   196  ILE196     -0.1245
     42  CA        12.8330  132.5530   19.4340 C.3   196  ILE196      0.1561
     43  C         12.7950  131.4260   20.4880 C.2   196  ILE196      0.2260
     44  O         13.5060  130.4250   20.3320 O.2   196  ILE196     -0.2867
     45  CB        13.9980  133.5920   19.6550 C.3   196  ILE196      0.0252
     46  CG1       15.3450  132.9870   19.2080 C.3   196  ILE196      0.0019
     47  CG2       14.0070  134.1590   21.0940 C.3   196  ILE196      0.0019
     48  CD1       16.5960  133.8690   19.4090 C.3   196  ILE196      0.0001
     49  N         11.6070  126.0800   17.7740 N.3   204  GLN204     -0.1245
     50  CA        11.8440  124.6810   18.1230 C.3   204  GLN204      0.1566
     51  C         10.6600  123.7890   17.8260 C.2   204  GLN204      0.2260
     52  O         10.5690  122.6910   18.3600 O.2   204  GLN204     -0.2867
     53  CB        12.2690  124.5200   19.5900 C.3   204  GLN204      0.0367
     54  CG        13.7080  124.9990   19.8930 C.3   204  GLN204      0.0905
     55  CD        13.8180  126.5230   19.7850 C.2   204  GLN204      0.2608
     56  OE1       14.5560  127.0450   18.9420 O.2   204  GLN204     -0.2717
     57  NE2       13.0500  127.2380   20.6150 N.am  204  GLN204     -0.0878
     58  N         26.1310  119.3560   23.1120 N.3   294  LYS294     -0.1245
     59  CA        24.7900  118.8230   22.9460 C.3   294  LYS294      0.1561
     60  C         24.7600  117.3640   23.4100 C.2   294  LYS294      0.2260
     61  O         25.5640  116.5450   22.9500 O.2   294  LYS294     -0.2867
     62  CB        24.3220  118.9510   21.4960 C.3   294  LYS294      0.0271
     63  CG        22.8830  118.5210   21.2850 C.3   294  LYS294      0.0035
     64  CD        22.3810  118.9260   19.9320 C.3   294  LYS294      0.0206
     65  CE        20.9530  118.4820   19.7880 C.3   294  LYS294      0.1093
     66  NZ        20.2700  119.1630   18.6960 N.3   294  LYS294     -0.1314
     67  N         18.4690  123.5080   29.9570 N.3   324  TYR324     -0.1241
     68  CA        17.3420  123.3900   29.0250 C.3   324  TYR324      0.1605
     69  C         17.2960  122.0390   28.3170 C.2   324  TYR324      0.2264
     70  O         18.3070  121.5470   27.8120 O.2   324  TYR324     -0.2867
     71  CB        17.3740  124.5140   27.9670 C.3   324  TYR324      0.0534
     72  CG        16.0980  124.6310   27.1400 C.ar  324  TYR324     -0.0201
     73  CD1       14.9240  125.1360   27.7130 C.ar  324  TYR324     -0.0009
     74  CD2       16.0690  124.2430   25.8020 C.ar  324  TYR324     -0.0009
     75  CE1       13.7570  125.2650   26.9720 C.ar  324  TYR324      0.0417
     76  CE2       14.8900  124.3720   25.0320 C.ar  324  TYR324      0.0417
     77  CZ        13.7450  124.8810   25.6270 C.ar  324  TYR324      0.1957
     78  OH        12.5780  125.0130   24.8850 O.3   324  TYR324     -0.2866
     79  N         14.7120  119.2480   25.7730 N.3   326  LEU326     -0.1245
     80  CA        13.5610  118.9480   24.9710 C.3   326  LEU326      0.1561
     81  C         13.4590  117.4260   24.8340 C.2   326  LEU326      0.2260
     82  O         14.4640  116.7100   24.8710 O.2   326  LEU326     -0.2867
     83  CB        13.6730  119.6200   23.5910 C.3   326  LEU326      0.0270
     84  CG        13.5300  121.1440   23.5270 C.3   326  LEU326      0.0019
     85  CD1       13.8980  121.6770   22.1400 C.3   326  LEU326      0.0001
     86  CD2       12.1300  121.6150   23.9470 C.3   326  LEU326      0.0001
     87  N         21.2480  120.8180   26.5570 N.3   341  PHE341     -0.1241
     88  CA        22.4480  121.5980   26.2180 C.3   341  PHE341      0.1605
     89  C         23.2680  121.9180   27.4530 C.2   341  PHE341      0.2264
     90  O         22.7130  122.3630   28.4520 O.2   341  PHE341     -0.2867
     91  CB        22.0770  122.9460   25.5750 C.3   341  PHE341      0.0534
     92  CG        21.4230  122.8300   24.2180 C.ar  341  PHE341     -0.0203
     93  CD1       20.1210  123.2880   24.0290 C.ar  341  PHE341     -0.0042
     94  CD2       22.1120  122.2670   23.1390 C.ar  341  PHE341     -0.0042
     95  CE1       19.5180  123.1780   22.7960 C.ar  341  PHE341     -0.0003
     96  CE2       21.5180  122.1520   21.9310 C.ar  341  PHE341     -0.0003
     97  CZ        20.2030  122.6130   21.7470 C.ar  341  PHE341     -0.0000
     98  N         26.2410  127.8850   18.9290 N.3   396  TYR396     -0.1241
     99  CA        25.5860  127.6650   17.6290 C.3   396  TYR396      0.1605
    100  C         26.1630  128.5780   16.5800 C.2   396  TYR396      0.2264
    101  O         26.2330  128.2210   15.3990 O.2   396  TYR396     -0.2867
    102  CB        24.0910  127.9900   17.7150 C.3   396  TYR396      0.0534
    103  CG        23.4610  127.6250   19.0330 C.ar  396  TYR396     -0.0201
    104  CD1       23.6600  126.3600   19.5910 C.ar  396  TYR396     -0.0009
    105  CD2       22.6490  128.5320   19.7200 C.ar  396  TYR396     -0.0009
    106  CE1       23.1170  126.0200   20.7930 C.ar  396  TYR396      0.0417
    107  CE2       22.0780  128.1760   20.9390 C.ar  396  TYR396      0.0417
    108  CZ        22.3230  126.9100   21.4660 C.ar  396  TYR396      0.1957
    109  OH        21.7820  126.4980   22.6740 O.3   396  TYR396     -0.2866
    110  N         22.2520  132.7900   12.5020 N.3   432  GLY432     -0.1210
    111  CA        22.5470  131.8380   13.5800 C.3   432  GLY432      0.1956
    112  C         21.9250  130.4680   13.3720 C.2   432  GLY432      0.2611
    113  O         22.3590  129.4950   13.9730 O.2   432  GLY432     -0.2717
    114  N         20.9140  130.4000   12.5090 N.am  433  TYR433     -0.1976
    115  CA        20.1460  129.1680   12.2680 C.3   433  TYR433      0.1639
    116  C         20.3890  128.5840   10.8760 C.2   433  TYR433      0.2290
    117  O         21.0090  129.2350   10.0250 O.2   433  TYR433     -0.2864
    118  CB        18.6460  129.4310   12.4880 C.3   433  TYR433      0.0560
    119  CG        18.3230  129.7770   13.9330 C.ar  433  TYR433     -0.0198
    120  CD1       18.6930  131.0130   14.4660 C.ar  433  TYR433     -0.0009
    121  CD2       17.6780  128.8560   14.7720 C.ar  433  TYR433     -0.0009
    122  CE1       18.4340  131.3420   15.7940 C.ar  433  TYR433      0.0417
    123  CE2       17.4050  129.1800   16.1140 C.ar  433  TYR433      0.0417
    124  CZ        17.7910  130.4340   16.6080 C.ar  433  TYR433      0.1957
    125  OH        17.5270  130.8040   17.8990 O.3   433  TYR433     -0.2866
@<TRIPOS>BOND
     1   117   116    2
     2   116   115    1
     3   115   118    1
     4   115   114    1
     5   118   119    1
     6   110   111    1
     7   114   112   am
     8    12    11    2
     9   112   111    1
    10   112   113    2
    11     8     7    2
    12    18    17    2
    13    17    16    1
    14   119   120   ar
    15   119   121   ar
    16     7     6    1
    17     7     9   am
    18    11    10    1
    19    11    15   am
    20     6     5    1
    21    10     9    1
    22    10    13    1
    23   120   122   ar
    24   121   123   ar
    25     5     3   am
    26    15    16    1
    27    16    19    1
    28   101   100    2
    29    14    13    1
    30     3     2    1
    31     3     4    2
    32   122   124   ar
    33     2     1    1
    34   123   124   ar
    35    19    20    1
    36   100    99    1
    37   124   125    1
    38    20    22   ar
    39    20    21   ar
    40    99   102    1
    41    99    98    1
    42   102   103    1
    43    22    24   ar
    44    49    50    1
    45    51    50    1
    46    51    52    2
    47    50    53    1
    48    21    23   ar
    49    66    65    1
    50    24    25   ar
    51    56    55    2
    52   103   104   ar
    53   103   105   ar
    54    46    48    1
    55    46    45    1
    56    41    42    1
    57    23    25   ar
    58    42    45    1
    59    42    43    1
    60    25    26    1
    61    53    54    1
    62   104   106   ar
    63    45    47    1
    64   105   107   ar
    65    55    54    1
    66    55    57   am
    67    65    64    1
    68    64    63    1
    69    44    43    2
    70   106   108   ar
    71    38    37    2
    72   107   108   ar
    73    63    62    1
    74   108   109    1
    75    62    59    1
    76    97    96   ar
    77    97    95   ar
    78    96    94   ar
    79    37    36    1
    80    85    84    1
    81    39    36    1
    82    39    40    1
    83    36    35    1
    84    95    93   ar
    85    59    58    1
    86    59    60    1
    87    61    60    2
    88    94    92   ar
    89    30    29    2
    90    84    83    1
    91    84    86    1
    92    83    80    1
    93    93    92   ar
    94    35    29   am
    95    92    91    1
    96    29    28    1
    97    81    82    2
    98    81    80    1
    99    78    77    1
   100    80    79    1
   101    76    77   ar
   102    76    74   ar
   103    33    32    1
   104    32    34    1
   105    32    31    1
   106    91    88    1
   107    77    75   ar
   108    74    72   ar
   109    28    31    1
   110    28    27    1
   111    88    87    1
   112    88    89    1
   113    75    73   ar
   114    72    73   ar
   115    72    71    1
   116    89    90    2
   117    70    69    2
   118    71    68    1
   119    69    68    1
   120    68    67    1
