@<TRIPOS>MOLECULE
tmp/2vroA01.pdb
 131 128 0 0 0
SMALL
GASTEIGER

@<TRIPOS>ATOM
      1  N         22.3640    3.5980   28.1350 N.3    97  ASN97      -0.1240
      2  CA        22.6310    3.2640   26.7270 C.3    97  ASN97       0.1653
      3  C         21.3740    2.7640   26.0200 C.2    97  ASN97       0.2266
      4  O         21.1580    3.0270   24.8430 O.2    97  ASN97      -0.2867
      5  CB        23.7120    2.1860   26.5890 C.3    97  ASN97       0.1155
      6  CG        25.1130    2.6840   26.9170 C.2    97  ASN97       0.2627
      7  OD1       25.3930    3.8880   26.9110 O.2    97  ASN97      -0.2716
      8  ND2       26.0080    1.7410   27.1890 N.am   97  ASN97      -0.0877
      9  N         18.8870    5.6250   25.5160 N.3   100  ALA100     -0.1231
     10  CA        19.3960    6.4140   24.3890 C.3   100  ALA100      0.1694
     11  C         18.8380    5.9930   23.0340 C.2   100  ALA100      0.2591
     12  O         18.6090    6.8400   22.1630 O.2   100  ALA100     -0.2718
     13  CB        20.9330    6.4150   24.3710 C.3   100  ALA100      0.0304
     14  N         18.6260    4.6880   22.8500 N.am  101  VAL101     -0.1980
     15  CA        18.0360    4.1820   21.6030 C.3   101  VAL101      0.1595
     16  C         16.6400    4.8250   21.3840 C.2   101  VAL101      0.2287
     17  O         16.2950    5.2390   20.2760 O.2   101  VAL101     -0.2864
     18  CB        17.9250    2.6480   21.6070 C.3   101  VAL101      0.0276
     19  CG1       17.3140    2.1430   20.2960 C.3   101  VAL101      0.0022
     20  CG2       19.3140    2.0000   21.8760 C.3   101  VAL101      0.0022
     21  N         17.4370    9.3560   22.0400 N.3   104  ASP104     -0.1225
     22  CA        18.3310    9.9120   21.0260 C.3   104  ASP104      0.1805
     23  C         18.0730    9.3060   19.6500 C.2   104  ASP104      0.2598
     24  O         18.2260    9.9790   18.6340 O.2   104  ASP104     -0.2718
     25  CB        19.8020    9.8040   21.4620 C.3   104  ASP104      0.1424
     26  CG        20.1020   10.6620   22.7020 C.2   104  ASP104      0.3668
     27  OD1       19.3020   11.5730   23.0040 O.co2 104  ASP104     -0.2456
     28  OD2       21.1250   10.4320   23.3670 O.co2 104  ASP104     -0.2456
     29  N         17.6300    8.0500   19.6130 N.am  105  GLY105     -0.1957
     30  CA        17.1310    7.4820   18.3610 C.3   105  GLY105      0.1869
     31  C         15.9390    8.2560   17.8070 C.2   105  GLY105      0.2309
     32  O         15.8700    8.5270   16.6070 O.2   105  GLY105     -0.2863
     33  N         17.3560   11.8450   16.6100 N.3   108  PHE108     -0.1227
     34  CA        18.0510   11.5850   15.3460 C.3   108  PHE108      0.1736
     35  C         17.0730   11.4280   14.1720 C.2   108  PHE108      0.2596
     36  O         17.2260   12.0710   13.1300 O.2   108  PHE108     -0.2718
     37  CB        18.9330   10.3350   15.4880 C.3   108  PHE108      0.0547
     38  CG        19.7190    9.9670   14.2480 C.ar  108  PHE108     -0.0202
     39  CD1       21.0550   10.3630   14.1120 C.ar  108  PHE108     -0.0042
     40  CD2       19.1390    9.2090   13.2270 C.ar  108  PHE108     -0.0042
     41  CE1       21.7970   10.0080   12.9630 C.ar  108  PHE108     -0.0003
     42  CE2       19.8660    8.8430   12.0830 C.ar  108  PHE108     -0.0003
     43  CZ        21.2030    9.2550   11.9440 C.ar  108  PHE108     -0.0000
     44  N         16.0510   10.5820   14.3600 N.am  109  THR109     -0.1953
     45  CA        15.0850   10.2750   13.3060 C.3   109  THR109      0.1897
     46  C         14.3120   11.5470   12.9020 C.2   109  THR109      0.2313
     47  O         14.1820   11.8580   11.7070 O.2   109  THR109     -0.2863
     48  CB        14.1580    9.1020   13.7490 C.3   109  THR109      0.1794
     49  OG1       14.9600    7.9170   13.8970 O.3   109  THR109     -0.2208
     50  CG2       13.0410    8.8400   12.7320 C.3   109  THR109      0.0378
     51  N          9.0590    1.6000   22.7410 N.3   161  PHE161     -0.1241
     52  CA         9.7080    2.8170   22.2700 C.3   161  PHE161      0.1605
     53  C          8.7360    4.0170   22.3600 C.2   161  PHE161      0.2264
     54  O          8.2130    4.4730   21.3280 O.2   161  PHE161     -0.2867
     55  CB        10.1940    2.6290   20.8180 C.3   161  PHE161      0.0534
     56  CG        11.4840    1.8630   20.7060 C.ar  161  PHE161     -0.0203
     57  CD1       12.6810    2.3930   21.2170 C.ar  161  PHE161     -0.0042
     58  CD2       11.5200    0.6280   20.0640 C.ar  161  PHE161     -0.0042
     59  CE1       13.8870    1.6740   21.1240 C.ar  161  PHE161     -0.0003
     60  CE2       12.7270   -0.0950   19.9630 C.ar  161  PHE161     -0.0003
     61  CZ        13.9100    0.4330   20.4940 C.ar  161  PHE161     -0.0000
     62  N         10.7960    6.9410   20.3690 N.3   164  TRP164     -0.1241
     63  CA        11.0980    6.6390   18.9650 C.3   164  TRP164      0.1605
     64  C          9.8320    6.2500   18.2020 C.2   164  TRP164      0.2264
     65  O          9.6570    6.6310   17.0510 O.2   164  TRP164     -0.2867
     66  CB        12.2050    5.5850   18.8220 C.3   164  TRP164      0.0550
     67  CG        12.4640    5.1900   17.4020 C.ar  164  TRP164      0.0003
     68  CD1       13.3130    5.8040   16.5060 C.ar  164  TRP164      0.0946
     69  CD2       11.8890    4.0810   16.7070 C.ar  164  TRP164      0.0152
     70  NE1       13.3000    5.1310   15.3050 N.ar  164  TRP164     -0.2442
     71  CE2       12.4250    4.0790   15.3920 C.ar  164  TRP164      0.0810
     72  CE3       10.9700    3.0940   17.0650 C.ar  164  TRP164      0.0012
     73  CZ2       12.0690    3.1180   14.4330 C.ar  164  TRP164      0.0191
     74  CZ3       10.6090    2.1390   16.1180 C.ar  164  TRP164      0.0001
     75  CH2       11.1660    2.1540   14.8170 C.ar  164  TRP164      0.0015
     76  N         12.9160   -5.4220   21.5570 N.3   296  LYS296     -0.1231
     77  CA        12.8280   -4.7630   20.2540 C.3   296  LYS296      0.1693
     78  C         12.0990   -5.6980   19.2890 C.2   296  LYS296      0.2592
     79  O         12.3950   -6.9210   19.2450 O.2   296  LYS296     -0.2718
     80  CB        14.2290   -4.4610   19.7110 C.3   296  LYS296      0.0285
     81  CG        15.0910   -3.5140   20.5500 C.3   296  LYS296      0.0035
     82  CD        16.0630   -2.7040   19.6720 C.3   296  LYS296      0.0206
     83  CE        16.9540   -3.5970   18.7640 C.3   296  LYS296      0.1093
     84  NZ        18.0290   -4.3270   19.5410 N.3   296  LYS296     -0.1314
     85  N         11.1580   -5.1410   18.5160 N.am  297  CYS297     -0.1956
     86  CA        10.4690   -5.8860   17.4490 C.3   297  CYS297      0.1843
     87  C         11.4730   -6.5570   16.4950 C.2   297  CYS297      0.2626
     88  O         11.1990   -7.6190   15.9250 O.2   297  CYS297     -0.2714
     89  CB         9.5780   -4.9330   16.6530 C.3   297  CYS297      0.0997
     90  SG         8.4490   -3.9200   17.6980 S.3   297  CYS297     -0.0797
     91  N         12.6390   -5.9250   16.3530 N.am  298  THR298     -0.1950
     92  CA        13.6780   -6.3700   15.4280 C.3   298  THR298      0.1897
     93  C         14.7180   -7.3370   16.0100 C.2   298  THR298      0.2313
     94  O         15.6410   -7.7590   15.2860 O.2   298  THR298     -0.2863
     95  CB        14.4660   -5.1530   14.8810 C.3   298  THR298      0.1794
     96  OG1       14.9560   -4.3700   15.9810 O.3   298  THR298     -0.2208
     97  CG2       13.5840   -4.2890   13.9560 C.3   298  THR298      0.0378
     98  N         19.4150   -4.8270   14.9750 N.3   476  GLY476     -0.1210
     99  CA        18.1160   -4.3770   15.4270 C.3   476  GLY476      0.1956
    100  C         17.8210   -2.8910   15.3060 C.2   476  GLY476      0.2612
    101  O         16.6590   -2.4970   15.3450 O.2   476  GLY476     -0.2717
    102  N         18.8640   -2.0660   15.1760 N.am  477  ASN477     -0.1960
    103  CA        18.6870   -0.6180   15.0110 C.3   477  ASN477      0.1819
    104  C         18.0930   -0.2360   13.6870 C.2   477  ASN477      0.2621
    105  O         18.5540   -0.6730   12.6230 O.2   477  ASN477     -0.2715
    106  CB        20.0000    0.1470   15.2210 C.3   477  ASN477      0.1195
    107  CG        20.5230    0.0050   16.6150 C.2   477  ASN477      0.2630
    108  OD1       19.7630    0.0550   17.5930 O.2   477  ASN477     -0.2716
    109  ND2       21.8390   -0.1820   16.7320 N.am  477  ASN477     -0.0877
    110  N         17.0680    0.6050   13.7610 N.am  478  VAL478     -0.1963
    111  CA        16.3180    1.0090   12.5920 C.3   478  VAL478      0.1727
    112  C         16.8100    2.3760   12.1020 C.2   478  VAL478      0.2616
    113  O         16.4610    3.4300   12.6710 O.2   478  VAL478     -0.2715
    114  CB        14.8060    1.0050   12.8960 C.3   478  VAL478      0.0290
    115  CG1       14.0210    1.4850   11.7080 C.3   478  VAL478      0.0023
    116  CG2       14.3610   -0.4200   13.2510 C.3   478  VAL478      0.0023
    117  N         17.6320    2.3400   11.0480 N.am  479  MET479     -0.1964
    118  CA        18.1160    3.5440   10.3930 C.3   479  MET479      0.1722
    119  C         16.9720    4.1190    9.5450 C.2   479  MET479      0.2458
    120  O         16.3930    3.4240    8.7140 O.2   479  MET479     -0.2730
    121  CB        19.3750    3.2590    9.5560 C.3   479  MET479      0.0427
    122  CG        20.5820    2.7450   10.3740 C.3   479  MET479      0.0599
    123  SD        21.1810    3.8320   11.7020 S.3   479  MET479     -0.1393
    124  CE        20.3890    3.1540   13.1420 C.3   479  MET479      0.0692
    125  N         16.6420    5.3990    9.7660 N.am  480  PRO480     -0.2727
    126  CA        15.4340    5.9750    9.1400 C.3   480  PRO480      0.1402
    127  C         15.5420    6.1070    7.6180 C.2   480  PRO480      0.2269
    128  O         14.5180    6.2140    6.9300 O.2   480  PRO480     -0.2865
    129  CB        15.3140    7.3510    9.7940 C.3   480  PRO480      0.0296
    130  CG        16.7210    7.7000   10.2270 C.3   480  PRO480      0.0237
    131  CD        17.3920    6.3810   10.5730 C.3   480  PRO480      0.0939
@<TRIPOS>BOND
     1   128   127    2
     2   127   126    1
     3   120   119    2
     4   126   125    1
     5   126   129    1
     6   119   125   am
     7   119   118    1
     8   121   122    1
     9   121   118    1
    10   125   131    1
    11   129   130    1
    12   130   131    1
    13   122   123    1
    14   118   117    1
    15   117   112   am
    16   123   124    1
    17    47    46    2
    18   115   114    1
    19    43    42   ar
    20    43    41   ar
    21    42    40   ar
    22   112   111    1
    23   112   113    2
    24   111   114    1
    25   111   110    1
    26   105   104    2
    27    50    48    1
    28   114   116    1
    29    46    45    1
    30    41    39   ar
    31    36    35    2
    32    40    38   ar
    33    45    48    1
    34    45    44    1
    35   104   110   am
    36   104   103    1
    37    48    49    1
    38    97    95    1
    39    39    38   ar
    40    35    44   am
    41    35    34    1
    42    38    37    1
    43    73    75   ar
    44    73    71   ar
    45    75    74   ar
    46    95    92    1
    47    95    96    1
    48    98    99    1
    49   103   102    1
    50   103   106    1
    51   102   100   am
    52   106   107    1
    53    94    93    2
    54    70    71   ar
    55    70    68   ar
    56   100   101    2
    57   100    99    1
    58    34    37    1
    59    34    33    1
    60    71    69   ar
    61    92    93    1
    62    92    91    1
    63    88    87    2
    64    74    72   ar
    65    91    87   am
    66    87    86    1
    67    68    67   ar
    68    32    31    2
    69   107   109   am
    70   107   108    2
    71    89    86    1
    72    89    90    1
    73    69    72   ar
    74    69    67   ar
    75    65    64    2
    76    67    66    1
    77    86    85    1
    78    31    30    1
    79    64    63    1
    80    30    29    1
    81    85    78   am
    82    24    23    2
    83    83    84    1
    84    83    82    1
    85    66    63    1
    86    63    62    1
    87    79    78    2
    88    78    77    1
    89    29    23   am
    90    23    22    1
    91    82    81    1
    92    80    77    1
    93    80    81    1
    94    60    58   ar
    95    60    61   ar
    96    58    56   ar
    97    77    76    1
    98    17    16    2
    99    19    18    1
   100    61    59   ar
   101    56    55    1
   102    56    57   ar
   103    55    52    1
   104    22    25    1
   105    22    21    1
   106    59    57   ar
   107    54    53    2
   108    16    15    1
   109    25    26    1
   110    15    18    1
   111    15    14    1
   112    18    20    1
   113    12    11    2
   114    52    53    1
   115    52    51    1
   116    26    27   ar
   117    26    28   ar
   118    14    11   am
   119    11    10    1
   120    13    10    1
   121    10     9    1
   122     4     3    2
   123     3     2    1
   124     5     2    1
   125     5     6    1
   126     2     1    1
   127     7     6    2
   128     6     8   am
