@<TRIPOS>MOLECULE
tmp/2vrqC00.pdb
 187 182 0 0 0
SMALL
GASTEIGER

@<TRIPOS>ATOM
      1  N         18.5330  -97.6100   62.7130 N.3    23  PHE23      -0.1241
      2  CA        18.7070  -96.7390   61.5510 C.3    23  PHE23       0.1605
      3  C         18.6850  -97.5660   60.2610 C.2    23  PHE23       0.2264
      4  O         19.4810  -98.5090   60.0850 O.2    23  PHE23      -0.2867
      5  CB        20.0260  -95.9550   61.7250 C.3    23  PHE23       0.0534
      6  CG        20.5320  -95.2760   60.4800 C.ar   23  PHE23      -0.0203
      7  CD1       19.6610  -94.7180   59.5560 C.ar   23  PHE23      -0.0042
      8  CD2       21.8900  -95.1310   60.2780 C.ar   23  PHE23      -0.0042
      9  CE1       20.1470  -94.0820   58.4240 C.ar   23  PHE23      -0.0003
     10  CE2       22.3830  -94.5000   59.1510 C.ar   23  PHE23      -0.0003
     11  CZ        21.5130  -93.9770   58.2230 C.ar   23  PHE23      -0.0000
     12  N         18.6850  -97.1250   56.0530 N.3    25  GLU25      -0.1245
     13  CA        18.8070  -96.2520   54.9000 C.3    25  GLU25       0.1567
     14  C         18.4450  -97.0160   53.6280 C.2    25  GLU25       0.2260
     15  O         18.5580  -98.2480   53.5640 O.2    25  GLU25      -0.2867
     16  CB        20.2420  -95.7110   54.8060 C.3    25  GLU25       0.0388
     17  CG        20.5070  -94.7820   53.6120 C.3    25  GLU25       0.1160
     18  CD        21.9010  -94.1800   53.6310 C.2    25  GLU25       0.3649
     19  OE1       22.7130  -94.5370   54.5020 O.co2  25  GLU25      -0.2457
     20  OE2       22.1980  -93.3450   52.7630 O.co2  25  GLU25      -0.2457
     21  N         19.8620  -98.1630   51.0760 N.3    27  LEU27      -0.1245
     22  CA        21.2450  -98.4410   50.7220 C.3    27  LEU27       0.1561
     23  C         21.4170  -99.9470   50.7240 C.2    27  LEU27       0.2260
     24  O         20.9300 -100.6240   51.6300 O.2    27  LEU27      -0.2867
     25  CB        22.1890  -97.8130   51.7570 C.3    27  LEU27       0.0270
     26  CG        23.7030  -97.8790   51.5230 C.3    27  LEU27       0.0019
     27  CD1       24.3870  -96.7960   52.3410 C.3    27  LEU27       0.0001
     28  CD2       24.2530  -99.2490   51.8880 C.3    27  LEU27       0.0001
     29  N         21.0010  -91.6290   56.1040 N.3    70  GLY70      -0.1210
     30  CA        22.0440  -90.6530   56.1620 C.3    70  GLY70       0.1956
     31  C         22.0950  -90.0360   54.7710 C.2    70  GLY70       0.2612
     32  O         21.2110  -89.2640   54.4220 O.2    70  GLY70      -0.2717
     33  N         23.0940  -90.3820   53.9680 N.am   71  CYS71      -0.1970
     34  CA        23.3180  -89.6380   52.7290 C.3    71  CYS71       0.1712
     35  C         22.1020  -89.6260   51.8060 C.2    71  CYS71       0.2296
     36  O         21.8000  -88.6180   51.1720 O.2    71  CYS71      -0.2864
     37  CB        24.5670  -90.1200   52.0070 C.3    71  CYS71       0.0983
     38  SG        26.0680  -89.6960   52.9280 S.3    71  CYS71      -0.0798
     39  N         20.8830  -84.1940   57.1350 N.3   172  ASN172     -0.1225
     40  CA        21.7820  -85.2160   57.6650 C.3   172  ASN172      0.1785
     41  C         23.1910  -84.9670   57.1320 C.2   172  ASN172      0.2597
     42  O         23.3590  -84.6370   55.9520 O.2   172  ASN172     -0.2718
     43  CB        21.2780  -86.6230   57.2450 C.3   172  ASN172      0.1169
     44  CG        22.3930  -87.6670   57.1900 C.2   172  ASN172      0.2627
     45  OD1       22.4960  -88.4710   58.2240 O.2   172  ASN172     -0.2716
     46  ND2       23.1390  -87.7540   56.2100 N.am  172  ASN172     -0.0877
     47  N         24.1960  -85.1000   57.9970 N.am  173  GLN173     -0.1979
     48  CA        25.6020  -84.9260   57.5960 C.3   173  GLN173      0.1601
     49  C         25.7960  -83.7580   56.6470 C.2   173  GLN173      0.2287
     50  O         26.4060  -83.8940   55.5850 O.2   173  GLN173     -0.2864
     51  CB        26.1460  -86.1960   56.9400 C.3   173  GLN173      0.0394
     52  CG        26.0400  -87.4320   57.8250 C.3   173  GLN173      0.0908
     53  CD        27.1410  -88.4470   57.5530 C.2   173  GLN173      0.2608
     54  OE1       27.6270  -89.0950   58.6230 O.2   173  GLN173     -0.2717
     55  NE2       27.5400  -88.6600   56.4060 N.am  173  GLN173     -0.0878
     56  N         27.6640  -81.2630   56.8220 N.3   175  TRP175     -0.1241
     57  CA        29.0870  -80.9360   56.6740 C.3   175  TRP175      0.1605
     58  C         29.7610  -81.7340   55.5600 C.2   175  TRP175      0.2264
     59  O         30.8490  -81.3950   55.1160 O.2   175  TRP175     -0.2867
     60  CB        29.8390  -81.1910   57.9820 C.3   175  TRP175      0.0550
     61  CG        29.2380  -82.2650   58.8410 C.ar  175  TRP175      0.0003
     62  CD1       28.4060  -82.0840   59.9150 C.ar  175  TRP175      0.0946
     63  CD2       29.4180  -83.6840   58.7070 C.ar  175  TRP175      0.0152
     64  NE1       28.0590  -83.3020   60.4510 N.ar  175  TRP175     -0.2442
     65  CE2       28.6680  -84.2970   59.7350 C.ar  175  TRP175      0.0810
     66  CE3       30.1540  -84.4910   57.8310 C.ar  175  TRP175      0.0012
     67  CZ2       28.6240  -85.6840   59.9080 C.ar  175  TRP175      0.0191
     68  CZ3       30.0940  -85.8700   57.9910 C.ar  175  TRP175      0.0001
     69  CH2       29.3460  -86.4520   59.0300 C.ar  175  TRP175      0.0015
     70  N         30.4080  -84.4300   63.1010 N.3   213  ASN213     -0.1225
     71  CA        31.0910  -85.6530   62.7580 C.3   213  ASN213      0.1785
     72  C         32.2390  -85.8390   63.7450 C.2   213  ASN213      0.2597
     73  O         33.1170  -84.9720   63.8780 O.2   213  ASN213     -0.2718
     74  CB        31.6350  -85.5330   61.3290 C.3   213  ASN213      0.1169
     75  CG        32.5470  -86.6840   60.9370 C.2   213  ASN213      0.2627
     76  OD1       32.4290  -87.7920   61.4480 O.2   213  ASN213     -0.2716
     77  ND2       33.4560  -86.4190   60.0040 N.am  213  ASN213     -0.0877
     78  N         32.2110  -86.9600   64.4500 N.am  214  THR214     -0.1953
     79  CA        33.2960  -87.3630   65.3230 C.3   214  THR214      0.1897
     80  C         33.7450  -86.2330   66.2490 C.2   214  THR214      0.2313
     81  O         32.9610  -85.7790   67.0800 O.2   214  THR214     -0.2863
     82  CB        34.4560  -87.9370   64.4940 C.3   214  THR214      0.1794
     83  OG1       33.9360  -88.9480   63.6120 O.3   214  THR214     -0.2208
     84  CG2       35.4970  -88.5670   65.3790 C.3   214  THR214      0.0378
     85  N         27.7470  -88.1610   65.1630 N.3   237  HIS237     -0.1226
     86  CA        27.9910  -89.3700   64.3870 C.3   237  HIS237      0.1752
     87  C         29.3830  -89.8630   64.6980 C.2   237  HIS237      0.2596
     88  O         30.3400  -89.0730   64.6790 O.2   237  HIS237     -0.2718
     89  CB        27.9120  -89.0700   62.8840 C.3   237  HIS237      0.0759
     90  CG        26.5200  -88.8630   62.3780 C.ar  237  HIS237      0.0818
     91  ND1       26.2100  -88.8930   61.0370 N.ar  237  HIS237     -0.2268
     92  CD2       25.3540  -88.6250   63.0280 C.ar  237  HIS237      0.1154
     93  CE1       24.9160  -88.6710   60.8770 C.ar  237  HIS237      0.1986
     94  NE2       24.3730  -88.5020   62.0700 N.ar  237  HIS237     -0.2212
     95  N         29.5120  -91.1570   64.9630 N.am  238  TYR238     -0.1962
     96  CA        30.8330  -91.7470   65.1950 C.3   238  TYR238      0.1771
     97  C         30.8860  -93.2460   64.9100 C.2   238  TYR238      0.2619
     98  O         30.3110  -94.0420   65.6480 O.2   238  TYR238     -0.2715
     99  CB        31.3390  -91.5050   66.6240 C.3   238  TYR238      0.0574
    100  CG        32.6660  -92.2030   66.8700 C.ar  238  TYR238     -0.0198
    101  CD1       33.7990  -91.8310   66.1620 C.ar  238  TYR238     -0.0009
    102  CD2       32.7790  -93.2400   67.7890 C.ar  238  TYR238     -0.0009
    103  CE1       35.0190  -92.4720   66.3550 C.ar  238  TYR238      0.0417
    104  CE2       34.0000  -93.8860   68.0000 C.ar  238  TYR238      0.0417
    105  CZ        35.1130  -93.4970   67.2740 C.ar  238  TYR238      0.1957
    106  OH        36.3330  -94.1370   67.4590 O.3   238  TYR238     -0.2866
    107  N         31.6200  -93.6040   63.8560 N.am  239  TYR239     -0.1974
    108  CA        31.8680  -94.9870   63.4850 C.3   239  TYR239      0.1639
    109  C         33.1850  -95.5140   64.0190 C.2   239  TYR239      0.2290
    110  O         34.1940  -94.8020   64.0300 O.2   239  TYR239     -0.2864
    111  CB        31.8740  -95.1210   61.9610 C.3   239  TYR239      0.0560
    112  CG        30.5060  -94.9540   61.3600 C.ar  239  TYR239     -0.0198
    113  CD1       29.5940  -95.9970   61.3810 C.ar  239  TYR239     -0.0009
    114  CD2       30.1220  -93.7420   60.7800 C.ar  239  TYR239     -0.0009
    115  CE1       28.3320  -95.8500   60.8240 C.ar  239  TYR239      0.0417
    116  CE2       28.8760  -93.5820   60.2330 C.ar  239  TYR239      0.0417
    117  CZ        27.9790  -94.6440   60.2560 C.ar  239  TYR239      0.1957
    118  OH        26.7310  -94.4870   59.7110 O.3   239  TYR239     -0.2866
    119  N         36.1130  -97.6400   63.2100 N.3   241  VAL241     -0.1245
    120  CA        36.7920  -98.1120   62.0130 C.3   241  VAL241      0.1561
    121  C         38.1990  -98.5720   62.3710 C.2   241  VAL241      0.2260
    122  O         39.0850  -97.7480   62.6120 O.2   241  VAL241     -0.2867
    123  CB        36.8850  -96.9890   60.9720 C.3   241  VAL241      0.0252
    124  CG1       37.5120  -97.4950   59.6880 C.3   241  VAL241      0.0019
    125  CG2       35.4990  -96.4080   60.7070 C.3   241  VAL241      0.0019
    126  N         40.8400  -95.6120   56.4440 N.3   245  TRP245     -0.1241
    127  CA        39.6170  -95.6510   55.6500 C.3   245  TRP245      0.1605
    128  C         39.7800  -96.4650   54.3650 C.2   245  TRP245      0.2264
    129  O         38.8430  -97.1480   53.9310 O.2   245  TRP245     -0.2867
    130  CB        39.1090  -94.2480   55.3280 C.3   245  TRP245      0.0550
    131  CG        37.7000  -94.2710   54.8070 C.ar  245  TRP245      0.0003
    132  CD1       37.3040  -94.2780   53.4970 C.ar  245  TRP245      0.0946
    133  CD2       36.5010  -94.3200   55.5900 C.ar  245  TRP245      0.0152
    134  NE1       35.9340  -94.3230   53.4190 N.ar  245  TRP245     -0.2442
    135  CE2       35.4160  -94.3460   54.6890 C.ar  245  TRP245      0.0810
    136  CE3       36.2390  -94.3370   56.9640 C.ar  245  TRP245      0.0012
    137  CZ2       34.0830  -94.3920   55.1210 C.ar  245  TRP245      0.0191
    138  CZ3       34.9180  -94.3850   57.3920 C.ar  245  TRP245      0.0001
    139  CH2       33.8590  -94.4110   56.4760 C.ar  245  TRP245      0.0015
    140  N         24.1400  -92.0500   64.3280 N.3   295  GLU295     -0.1245
    141  CA        24.8730  -93.0240   63.5310 C.3   295  GLU295      0.1567
    142  C         26.0830  -93.4770   64.3380 C.2   295  GLU295      0.2260
    143  O         26.9350  -92.6680   64.6990 O.2   295  GLU295     -0.2867
    144  CB        25.3100  -92.4460   62.1620 C.3   295  GLU295      0.0388
    145  CG        24.1490  -92.2290   61.2060 C.3   295  GLU295      0.1160
    146  CD        24.5790  -91.7680   59.8240 C.2   295  GLU295      0.3649
    147  OE1       25.7290  -92.0390   59.4410 O.co2 295  GLU295     -0.2457
    148  OE2       23.7550  -91.1450   59.1170 O.co2 295  GLU295     -0.2457
    149  N         32.5470 -100.2680   61.1990 N.3   299  TRP299     -0.1241
    150  CA        32.5440 -100.1470   59.7510 C.3   299  TRP299      0.1605
    151  C         33.8030 -100.8580   59.2920 C.2   299  TRP299      0.2264
    152  O         34.9170 -100.3950   59.5530 O.2   299  TRP299     -0.2867
    153  CB        32.5910  -98.6700   59.3390 C.3   299  TRP299      0.0550
    154  CG        32.2810  -98.3910   57.8760 C.ar  299  TRP299      0.0003
    155  CD1       32.6430  -99.1470   56.7940 C.ar  299  TRP299      0.0946
    156  CD2       31.5970  -97.2440   57.3490 C.ar  299  TRP299      0.0152
    157  NE1       32.2040  -98.5550   55.6310 N.ar  299  TRP299     -0.2442
    158  CE2       31.5560  -97.3900   55.9430 C.ar  299  TRP299      0.0810
    159  CE3       30.9960  -96.1240   57.9290 C.ar  299  TRP299      0.0012
    160  CZ2       30.9400  -96.4550   55.1090 C.ar  299  TRP299      0.0191
    161  CZ3       30.3780  -95.1950   57.1000 C.ar  299  TRP299      0.0001
    162  CH2       30.3590  -95.3670   55.7030 C.ar  299  TRP299      0.0015
    163  N         27.8980 -101.9850   51.4320 N.3   311  LEU311     -0.1245
    164  CA        28.3200 -101.9630   52.8420 C.3   311  LEU311      0.1561
    165  C         28.0390 -103.2410   53.6280 C.2   311  LEU311      0.2260
    166  O         27.8280 -103.1940   54.8410 O.2   311  LEU311     -0.2867
    167  CB        27.7000 -100.7600   53.5730 C.3   311  LEU311      0.0270
    168  CG        28.1240  -99.3880   53.0470 C.3   311  LEU311      0.0019
    169  CD1       27.6030  -98.2970   53.9600 C.3   311  LEU311      0.0001
    170  CD2       29.6430  -99.2960   52.8990 C.3   311  LEU311      0.0001
    171  N         22.5970  -99.2100   60.9380 N.3   344  GLN344     -0.1245
    172  CA        21.9000  -99.9620   59.9360 C.3   344  GLN344      0.1566
    173  C         21.3530 -101.3270   60.3060 C.2   344  GLN344      0.2260
    174  O         22.0610 -102.2740   60.6260 O.2   344  GLN344     -0.2867
    175  CB        22.4230  -99.7380   58.5200 C.3   344  GLN344      0.0367
    176  CG        22.7340  -98.2440   58.2990 C.3   344  GLN344      0.0905
    177  CD        22.3870  -97.7710   56.9020 C.2   344  GLN344      0.2608
    178  OE1       21.3960  -98.2120   56.3240 O.2   344  GLN344     -0.2717
    179  NE2       23.1950  -96.8610   56.3590 N.am  344  GLN344     -0.0878
    180  N         26.4090 -102.6230   57.3240 N.3   349  LEU349     -0.1245
    181  CA        27.2710 -102.2590   58.4550 C.3   349  LEU349      0.1561
    182  C         27.0120 -103.1640   59.6700 C.2   349  LEU349      0.2260
    183  O         26.9350 -104.3790   59.5060 O.2   349  LEU349     -0.2867
    184  CB        27.1540 -100.7670   58.7920 C.3   349  LEU349      0.0270
    185  CG        27.6990  -99.8310   57.6980 C.3   349  LEU349      0.0019
    186  CD1       27.3320  -98.3660   57.9630 C.3   349  LEU349      0.0001
    187  CD2       29.2160  -99.9760   57.5160 C.3   349  LEU349      0.0001
@<TRIPOS>BOND
     1    22    23    1
     2    22    21    1
     3    22    25    1
     4    23    24    2
     5    36    35    2
     6   163   164    1
     7    26    25    1
     8    26    28    1
     9    26    27    1
    10    35    34    1
    11    37    34    1
    12    37    38    1
    13    34    33    1
    14    20    18   ar
    15   164   167    1
    16   164   165    1
    17   170   168    1
    18   168   167    1
    19   168   169    1
    20   134   132   ar
    21   134   135   ar
    22   132   131   ar
    23    15    14    2
    24    17    18    1
    25    17    16    1
    26    14    13    1
    27   165   166    2
    28    18    19   ar
    29   129   128    2
    30    33    31   am
    31   128   127    1
    32    32    31    2
    33   135   137   ar
    34   135   133   ar
    35    31    30    1
    36    16    13    1
    37   131   130    1
    38   131   133   ar
    39    13    12    1
    40   160   162   ar
    41   160   158   ar
    42    59    58    2
    43   137   139   ar
    44   130   127    1
    45    58    57    1
    46    50    49    2
    47   133   136   ar
    48   157   158   ar
    49   157   155   ar
    50   127   126    1
    51   162   161   ar
    52   158   156   ar
    53    42    41    2
    54    29    30    1
    55    46    44   am
    56   178   177    2
    57   179   177   am
    58    55    53   am
    59   139   138   ar
    60    49    48    1
    61    57    56    1
    62    57    60    1
    63   155   154   ar
    64   177   176    1
    65    51    48    1
    66    51    52    1
    67   136   138   ar
    68   161   159   ar
    69    41    40    1
    70    41    47   am
    71    39    40    1
    72    44    43    1
    73    44    45    2
    74    43    40    1
    75   180   181    1
    76   156   154   ar
    77   156   159   ar
    78   187   185    1
    79    53    52    1
    80    53    54    2
    81    48    47    1
    82   185   186    1
    83   185   184    1
    84    66    68   ar
    85    66    63   ar
    86   154   153    1
    87    60    61    1
    88    68    69   ar
    89    11     9   ar
    90    11    10   ar
    91   176   175    1
    92     9     7   ar
    93   181   184    1
    94   181   182    1
    95   175   172    1
    96    63    61   ar
    97    63    65   ar
    98    61    62   ar
    99    69    67   ar
   100   148   146   ar
   101    10     8   ar
   102   151   152    2
   103   151   150    1
   104   153   150    1
   105   147   146   ar
   106   183   182    2
   107     7     6   ar
   108   124   123    1
   109   118   117    1
   110    65    67   ar
   111    65    64   ar
   112   150   149    1
   113   146   145    1
   114    62    64   ar
   115   172   173    1
   116   172   171    1
   117    77    75   am
   118     4     3    2
   119   116   117   ar
   120   116   114   ar
   121   117   115   ar
   122     3     2    1
   123     8     6   ar
   124   173   174    2
   125     6     5    1
   126   125   123    1
   127   114   112   ar
   128   115   113   ar
   129    93    91   ar
   130    93    94   ar
   131    75    74    1
   132    75    76    2
   133   123   120    1
   134    91    90   ar
   135   145   144    1
   136    74    71    1
   137   112   113   ar
   138   112   111    1
   139     2     5    1
   140     2     1    1
   141   111   108    1
   142   120   121    1
   143   120   119    1
   144    94    92   ar
   145   144   141    1
   146   121   122    2
   147    90    89    1
   148    90    92   ar
   149    71    70    1
   150    71    72    1
   151    89    86    1
   152   108   107    1
   153   108   109    1
   154   141   140    1
   155   141   142    1
   156    83    82    1
   157    72    73    2
   158    72    78   am
   159   107    97   am
   160   109   110    2
   161   142   143    2
   162    86    87    1
   163    86    85    1
   164    78    79    1
   165    82    79    1
   166    82    84    1
   167    88    87    2
   168    87    95   am
   169    97    96    1
   170    97    98    2
   171    95    96    1
   172    96    99    1
   173    79    80    1
   174   101   103   ar
   175   101   100   ar
   176    80    81    2
   177   103   105   ar
   178    99   100    1
   179   100   102   ar
   180   105   106    1
   181   105   104   ar
   182   102   104   ar
