@<TRIPOS>MOLECULE
tmp/2vrqB00.pdb
 213 210 0 0 0
SMALL
GASTEIGER

@<TRIPOS>ATOM
      1  N         -2.7240  -51.7050   55.5760 N.3    23  PHE23      -0.1241
      2  CA        -2.1380  -53.0380   55.5380 C.3    23  PHE23       0.1605
      3  C         -3.2330  -54.0650   55.7800 C.2    23  PHE23       0.2264
      4  O         -3.9220  -54.0210   56.7970 O.2    23  PHE23      -0.2867
      5  CB        -1.0190  -53.1310   56.5980 C.3    23  PHE23       0.0534
      6  CG        -0.5570  -54.5540   56.9230 C.ar   23  PHE23      -0.0203
      7  CD1       -0.4090  -55.5140   55.9240 C.ar   23  PHE23      -0.0042
      8  CD2       -0.2290  -54.8990   58.2320 C.ar   23  PHE23      -0.0042
      9  CE1        0.0320  -56.8000   56.2320 C.ar   23  PHE23      -0.0003
     10  CE2        0.2120  -56.1810   58.5500 C.ar   23  PHE23      -0.0003
     11  CZ         0.3290  -57.1400   57.5530 C.ar   23  PHE23      -0.0000
     12  N         -3.7820  -58.2570   55.7170 N.3    25  GLU25      -0.1245
     13  CA        -3.2440  -59.6090   55.6020 C.3    25  GLU25       0.1567
     14  C         -4.3730  -60.6120   55.4170 C.2    25  GLU25       0.2260
     15  O         -5.5080  -60.3480   55.8020 O.2    25  GLU25      -0.2867
     16  CB        -2.4530  -59.9440   56.8860 C.3    25  GLU25       0.0388
     17  CG        -1.7440  -61.3190   56.8910 C.3    25  GLU25       0.1160
     18  CD        -0.8390  -61.4980   58.1060 C.2    25  GLU25       0.3649
     19  OE1       -0.7770  -60.5780   58.9450 O.co2  25  GLU25      -0.2457
     20  OE2       -0.1870  -62.5580   58.2370 O.co2  25  GLU25      -0.2457
     21  N          2.1230  -59.6140   56.6480 N.3    70  GLY70      -0.1210
     22  CA         3.3130  -60.0130   57.3090 C.3    70  GLY70       0.1956
     23  C          3.4270  -61.5260   57.2170 C.2    70  GLY70       0.2612
     24  O          3.7250  -62.0470   56.1490 O.2    70  GLY70      -0.2717
     25  N          3.1720  -62.2330   58.3180 N.am   71  CYS71      -0.1970
     26  CA         3.5310  -63.6480   58.3980 C.3    71  CYS71       0.1712
     27  C          2.9720  -64.4940   57.2590 C.2    71  CYS71       0.2296
     28  O          3.6550  -65.3720   56.7510 O.2    71  CYS71      -0.2864
     29  CB         3.1660  -64.2410   59.7690 C.3    71  CYS71       0.0983
     30  SG         4.2140  -63.5470   61.0860 S.3    71  CYS71      -0.0798
     31  N         -0.3520  -69.7170   60.8190 N.3    95  HIS95      -0.1226
     32  CA        -0.1600  -68.6950   61.8410 C.3    95  HIS95       0.1752
     33  C         -1.4730  -68.1870   62.4780 C.2    95  HIS95       0.2596
     34  O         -1.4890  -67.8400   63.6620 O.2    95  HIS95      -0.2718
     35  CB         0.7120  -67.5390   61.3110 C.3    95  HIS95       0.0759
     36  CG         2.1360  -67.9310   61.0320 C.ar   95  HIS95       0.0818
     37  ND1        2.7580  -67.6860   59.8240 N.ar   95  HIS95      -0.2268
     38  CD2        3.0540  -68.5600   61.8040 C.ar   95  HIS95       0.1154
     39  CE1        3.9970  -68.1450   59.8640 C.ar   95  HIS95       0.1986
     40  NE2        4.2010  -68.6820   61.0550 N.ar   95  HIS95      -0.2212
     41  N         -2.5760  -68.1770   61.7250 N.am   96  TRP96      -0.1976
     42  CA        -3.7940  -67.5110   62.2100 C.3    96  TRP96       0.1640
     43  C         -5.0460  -68.3940   62.3480 C.2    96  TRP96       0.2290
     44  O         -5.9990  -68.2450   61.5900 O.2    96  TRP96      -0.2864
     45  CB        -4.1150  -66.2930   61.3340 C.3    96  TRP96       0.0576
     46  CG        -2.9290  -65.3770   61.1210 C.ar   96  TRP96       0.0006
     47  CD1       -2.2990  -65.1120   59.9280 C.ar   96  TRP96       0.0946
     48  CD2       -2.2300  -64.6220   62.1230 C.ar   96  TRP96       0.0152
     49  NE1       -1.2500  -64.2310   60.1290 N.ar   96  TRP96      -0.2442
     50  CE2       -1.1880  -63.9150   61.4660 C.ar   96  TRP96       0.0810
     51  CE3       -2.3820  -64.4690   63.5090 C.ar   96  TRP96       0.0012
     52  CZ2       -0.3110  -63.0670   62.1480 C.ar   96  TRP96       0.0191
     53  CZ3       -1.5000  -63.6250   64.1900 C.ar   96  TRP96       0.0001
     54  CH2       -0.4790  -62.9370   63.5030 C.ar   96  TRP96       0.0015
     55  N          9.0020  -60.5960   54.7290 N.3   172  ASN172     -0.1225
     56  CA         8.4010  -59.9000   55.8570 C.3   172  ASN172      0.1785
     57  C          8.9110  -60.5360   57.1280 C.2   172  ASN172      0.2597
     58  O          8.9310  -61.7540   57.2280 O.2   172  ASN172     -0.2718
     59  CB         6.8620  -60.0280   55.7920 C.3   172  ASN172      0.1169
     60  CG         6.1790  -59.7540   57.1480 C.2   172  ASN172      0.2627
     61  OD1        5.7470  -58.5270   57.3500 O.2   172  ASN172     -0.2716
     62  ND2        6.0140  -60.6550   57.9830 N.am  172  ASN172     -0.0877
     63  N          9.3270  -59.7210   58.0910 N.am  173  GLN173     -0.1979
     64  CA         9.7240  -60.2060   59.4180 C.3   173  GLN173      0.1601
     65  C         10.6090  -61.4420   59.3670 C.2   173  GLN173      0.2287
     66  O         10.3920  -62.4170   60.0840 O.2   173  GLN173     -0.2864
     67  CB         8.4930  -60.5010   60.2880 C.3   173  GLN173      0.0394
     68  CG         7.5910  -59.2780   60.5240 C.3   173  GLN173      0.0908
     69  CD         6.7910  -59.3950   61.8090 C.2   173  GLN173      0.2608
     70  OE1        6.5220  -58.2490   62.4450 O.2   173  GLN173     -0.2717
     71  NE2        6.4060  -60.5000   62.2220 N.am  173  GLN173     -0.0878
     72  N         13.4410  -62.0040   60.5090 N.3   175  TRP175     -0.1241
     73  CA        14.0320  -62.3170   61.8150 C.3   175  TRP175      0.1605
     74  C         13.1360  -63.2200   62.6690 C.2   175  TRP175      0.2264
     75  O         13.5950  -63.7940   63.6550 O.2   175  TRP175     -0.2867
     76  CB        14.3330  -61.0290   62.6010 C.3   175  TRP175      0.0550
     77  CG        13.3690  -59.8770   62.2870 C.ar  175  TRP175      0.0003
     78  CD1       13.5910  -58.8340   61.4290 C.ar  175  TRP175      0.0946
     79  CD2       12.0740  -59.6590   62.8480 C.ar  175  TRP175      0.0152
     80  NE1       12.5030  -57.9960   61.3970 N.ar  175  TRP175     -0.2442
     81  CE2       11.5580  -58.4780   62.2650 C.ar  175  TRP175      0.0810
     82  CE3       11.2880  -60.3550   63.7820 C.ar  175  TRP175      0.0012
     83  CZ2       10.2950  -57.9750   62.5870 C.ar  175  TRP175      0.0191
     84  CZ3       10.0360  -59.8570   64.1010 C.ar  175  TRP175      0.0001
     85  CH2        9.5530  -58.6750   63.5080 C.ar  175  TRP175      0.0015
     86  N          8.8860  -64.8950   62.0360 N.3   177  CYS177     -0.1235
     87  CA         8.0590  -65.8520   61.3100 C.3   177  CYS177      0.1677
     88  C          8.4670  -66.0340   59.8390 C.2   177  CYS177      0.2270
     89  O          8.0480  -66.9830   59.1980 O.2   177  CYS177     -0.2867
     90  CB         6.5780  -65.4560   61.3980 C.3   177  CYS177      0.0956
     91  SG         6.2320  -63.8160   60.6770 S.3   177  CYS177     -0.0801
     92  N         12.6330  -55.2800   63.9950 N.3   213  ASN213     -0.1225
     93  CA        11.5940  -55.3800   64.9880 C.3   213  ASN213      0.1785
     94  C         11.9030  -54.3960   66.1200 C.2   213  ASN213      0.2597
     95  O         12.9470  -54.5020   66.7650 O.2   213  ASN213     -0.2718
     96  CB        11.5810  -56.8100   65.5380 C.3   213  ASN213      0.1169
     97  CG        10.5810  -57.0010   66.6620 C.2   213  ASN213      0.2627
     98  OD1        9.5820  -56.2850   66.7470 O.2   213  ASN213     -0.2716
     99  ND2       10.8440  -57.9850   67.5320 N.am  213  ASN213     -0.0877
    100  N         11.0230  -53.4170   66.3210 N.am  214  THR214     -0.1953
    101  CA        11.1120  -52.5340   67.4800 C.3   214  THR214      0.1897
    102  C         12.5440  -51.9920   67.6160 C.2   214  THR214      0.2313
    103  O         13.0260  -51.3600   66.6990 O.2   214  THR214     -0.2863
    104  CB        10.6050  -53.2640   68.7570 C.3   214  THR214      0.1794
    105  OG1        9.3120  -53.8270   68.4870 O.3   214  THR214     -0.2208
    106  CG2       10.4880  -52.3220   69.9500 C.3   214  THR214      0.0378
    107  N          9.0040  -52.3030   62.2170 N.3   237  HIS237     -0.1226
    108  CA         7.7100  -52.7020   62.7850 C.3   237  HIS237      0.1752
    109  C          7.7000  -52.3520   64.2500 C.2   237  HIS237      0.2596
    110  O          8.6580  -52.6440   64.9620 O.2   237  HIS237     -0.2718
    111  CB         7.4820  -54.2050   62.6540 C.3   237  HIS237      0.0759
    112  CG         7.2390  -54.6590   61.2470 C.ar  237  HIS237      0.0818
    113  ND1        6.9060  -55.9590   60.9340 N.ar  237  HIS237     -0.2268
    114  CD2        7.2640  -53.9830   60.0730 C.ar  237  HIS237      0.1154
    115  CE1        6.7670  -56.0730   59.6230 C.ar  237  HIS237      0.1986
    116  NE2        6.9720  -54.8880   59.0790 N.ar  237  HIS237     -0.2212
    117  N          6.6320  -51.6990   64.6940 N.am  238  TYR238     -0.1962
    118  CA         6.4670  -51.4160   66.1110 C.3   238  TYR238      0.1771
    119  C          5.0010  -51.3290   66.5160 C.2   238  TYR238      0.2619
    120  O          4.3100  -50.3830   66.1390 O.2   238  TYR238     -0.2715
    121  CB         7.1700  -50.1190   66.5280 C.3   238  TYR238      0.0574
    122  CG         6.8980  -49.8010   68.0000 C.ar  238  TYR238     -0.0198
    123  CD1        7.2840  -50.6890   68.9950 C.ar  238  TYR238     -0.0009
    124  CD2        6.2410  -48.6300   68.3790 C.ar  238  TYR238     -0.0009
    125  CE1        7.0230  -50.4320   70.3520 C.ar  238  TYR238      0.0417
    126  CE2        5.9800  -48.3550   69.7290 C.ar  238  TYR238      0.0417
    127  CZ         6.3710  -49.2600   70.7010 C.ar  238  TYR238      0.1957
    128  OH         6.1150  -48.9920   72.0290 O.3   238  TYR238     -0.2866
    129  N          4.5600  -52.2970   67.3160 N.am  239  TYR239     -0.1974
    130  CA         3.2040  -52.3220   67.8610 C.3   239  TYR239      0.1639
    131  C          3.1720  -51.7210   69.2710 C.2   239  TYR239      0.2290
    132  O          4.1090  -51.8840   70.0480 O.2   239  TYR239     -0.2864
    133  CB         2.6720  -53.7640   67.9080 C.3   239  TYR239      0.0560
    134  CG         2.3300  -54.3300   66.5510 C.ar  239  TYR239     -0.0198
    135  CD1        1.1440  -53.9790   65.9070 C.ar  239  TYR239     -0.0009
    136  CD2        3.1970  -55.2020   65.8980 C.ar  239  TYR239     -0.0009
    137  CE1        0.8310  -54.4950   64.6550 C.ar  239  TYR239      0.0417
    138  CE2        2.8880  -55.7210   64.6480 C.ar  239  TYR239      0.0417
    139  CZ         1.7030  -55.3550   64.0320 C.ar  239  TYR239      0.1957
    140  OH         1.3820  -55.8580   62.7950 O.3   239  TYR239     -0.2866
    141  N          1.6890  -52.1480   72.7070 N.3   241  VAL241     -0.1245
    142  CA         1.1240  -53.2820   73.4260 C.3   241  VAL241      0.1561
    143  C          1.1390  -52.9220   74.9180 C.2   241  VAL241      0.2260
    144  O          2.2000  -52.9160   75.5340 O.2   241  VAL241     -0.2867
    145  CB         1.9660  -54.5430   73.1640 C.3   241  VAL241      0.0252
    146  CG1        1.3600  -55.7750   73.8570 C.3   241  VAL241      0.0019
    147  CG2        2.1270  -54.7750   71.6350 C.3   241  VAL241      0.0019
    148  N          3.0620  -59.5110   76.6840 N.3   245  TRP245     -0.1241
    149  CA         2.5370  -60.2230   75.5250 C.3   245  TRP245      0.1605
    150  C          1.4620  -61.2530   75.8770 C.2   245  TRP245      0.2264
    151  O          0.5130  -61.4380   75.1190 O.2   245  TRP245     -0.2867
    152  CB         3.6510  -60.8920   74.7070 C.3   245  TRP245      0.0550
    153  CG         3.1490  -61.3330   73.3640 C.ar  245  TRP245      0.0003
    154  CD1        2.7110  -62.5810   73.0180 C.ar  245  TRP245      0.0946
    155  CD2        2.9780  -60.5090   72.2010 C.ar  245  TRP245      0.0152
    156  NE1        2.2970  -62.5900   71.7070 N.ar  245  TRP245     -0.2442
    157  CE2        2.4530  -61.3310   71.1830 C.ar  245  TRP245      0.0810
    158  CE3        3.2320  -59.1630   71.9200 C.ar  245  TRP245      0.0012
    159  CZ2        2.1690  -60.8460   69.9040 C.ar  245  TRP245      0.0191
    160  CZ3        2.9500  -58.6850   70.6510 C.ar  245  TRP245      0.0001
    161  CH2        2.4240  -59.5300   69.6580 C.ar  245  TRP245      0.0015
    162  N          4.3400  -51.8130   59.6820 N.3   295  GLU295     -0.1245
    163  CA         3.3920  -52.3770   60.6430 C.3   295  GLU295      0.1567
    164  C          3.4470  -51.5410   61.9100 C.2   295  GLU295      0.2260
    165  O          4.5010  -51.3990   62.5220 O.2   295  GLU295     -0.2867
    166  CB         3.6780  -53.8710   60.9450 C.3   295  GLU295      0.0388
    167  CG         3.4600  -54.8080   59.7360 C.3   295  GLU295      0.1160
    168  CD         3.5760  -56.2970   60.0650 C.2   295  GLU295      0.3649
    169  OE1        3.3990  -56.6650   61.2340 O.co2 295  GLU295     -0.2457
    170  OE2        3.8410  -57.1120   59.1420 O.co2 295  GLU295     -0.2457
    171  N         -2.0820  -53.2790   69.7790 N.3   299  TRP299     -0.1241
    172  CA        -2.3640  -54.7120   69.7730 C.3   299  TRP299      0.1605
    173  C         -2.8010  -55.0990   71.1930 C.2   299  TRP299      0.2264
    174  O         -2.0080  -55.0110   72.1340 O.2   299  TRP299     -0.2867
    175  CB        -1.1110  -55.4890   69.3460 C.3   299  TRP299      0.0550
    176  CG        -1.3180  -56.9490   69.0180 C.ar  299  TRP299      0.0003
    177  CD1       -2.2250  -57.8110   69.5790 C.ar  299  TRP299      0.0946
    178  CD2       -0.5550  -57.7310   68.0820 C.ar  299  TRP299      0.0152
    179  NE1       -2.0830  -59.0800   69.0350 N.ar  299  TRP299     -0.2442
    180  CE2       -1.0710  -59.0460   68.1080 C.ar  299  TRP299      0.0810
    181  CE3        0.4860  -57.4350   67.1980 C.ar  299  TRP299      0.0012
    182  CZ2       -0.5640  -60.0600   67.2960 C.ar  299  TRP299      0.0191
    183  CZ3        0.9760  -58.4430   66.3810 C.ar  299  TRP299      0.0001
    184  CH2        0.4550  -59.7390   66.4430 C.ar  299  TRP299      0.0015
    185  N         -6.4320  -66.2330   67.1850 N.3   309  GLY309     -0.1225
    186  CA        -5.7830  -66.1880   65.8810 C.3   309  GLY309      0.1811
    187  C         -6.3710  -65.2270   64.8500 C.2   309  GLY309      0.2280
    188  O         -5.7660  -65.0260   63.7990 O.2   309  GLY309     -0.2866
    189  N         -7.3580  -62.0060   65.7320 N.3   311  LEU311     -0.1245
    190  CA        -6.9070  -60.6700   66.1390 C.3   311  LEU311      0.1561
    191  C         -7.9990  -59.5980   66.1600 C.2   311  LEU311      0.2260
    192  O         -7.7200  -58.4000   65.9670 O.2   311  LEU311     -0.2867
    193  CB        -5.7260  -60.2050   65.2630 C.3   311  LEU311      0.0270
    194  CG        -4.4430  -61.0690   65.3040 C.3   311  LEU311      0.0019
    195  CD1       -3.2840  -60.4060   64.5690 C.3   311  LEU311      0.0001
    196  CD2       -4.0250  -61.3800   66.7460 C.3   311  LEU311      0.0001
    197  N         -3.7050  -53.3050   59.9000 N.3   344  GLN344     -0.1245
    198  CA        -4.8760  -53.9890   59.4650 C.3   344  GLN344      0.1566
    199  C         -6.1470  -53.2000   59.2880 C.2   344  GLN344      0.2260
    200  O         -6.6980  -52.5430   60.1930 O.2   344  GLN344     -0.2867
    201  CB        -4.9250  -55.4420   59.9100 C.3   344  GLN344      0.0367
    202  CG        -3.4970  -56.0280   59.8570 C.3   344  GLN344      0.0905
    203  CD        -3.4580  -57.4380   59.3570 C.2   344  GLN344      0.2608
    204  OE1       -4.3070  -57.8390   58.5710 O.2   344  GLN344     -0.2717
    205  NE2       -2.4600  -58.2050   59.8040 N.am  344  GLN344     -0.0878
    206  N         -6.7310  -56.0940   64.4690 N.3   349  LEU349     -0.1245
    207  CA        -5.8970  -55.1450   65.1940 C.3   349  LEU349      0.1561
    208  C         -6.5340  -53.7610   65.1270 C.2   349  LEU349      0.2260
    209  O         -7.7490  -53.6450   65.2710 O.2   349  LEU349     -0.2867
    210  CB        -4.4480  -55.1690   64.6790 C.3   349  LEU349      0.0270
    211  CG        -3.7620  -56.5210   64.9250 C.3   349  LEU349      0.0019
    212  CD1       -2.3760  -56.6080   64.2460 C.3   349  LEU349      0.0001
    213  CD2       -3.6500  -56.8270   66.4340 C.3   349  LEU349      0.0001
@<TRIPOS>BOND
     1    55    56    1
     2    14    13    1
     3    14    15    2
     4     2     1    1
     5     2     3    1
     6     2     5    1
     7    13    12    1
     8    13    16    1
     9     3     4    2
    10    59    56    1
    11    59    60    1
    12    56    57    1
    13     7     9   ar
    14     7     6   ar
    15    24    23    2
    16     9    11   ar
    17     5     6    1
    18    21    22    1
    19    28    27    2
    20    16    17    1
    21    17    18    1
    22     6     8   ar
    23    57    58    2
    24    57    63   am
    25    60    61    2
    26    60    62   am
    27    23    22    1
    28    23    25   am
    29    27    26    1
    30    11    10   ar
    31    63    64    1
    32    18    20   ar
    33    18    19   ar
    34     8    10   ar
    35    25    26    1
    36    26    29    1
    37   204   203    2
    38   116   115   ar
    39   116   114   ar
    40   170   168   ar
    41    89    88    2
    42   199   198    1
    43   199   200    2
    44   203   205   am
    45   203   202    1
    46    65    64    1
    47    65    66    2
    48    64    67    1
    49   198   197    1
    50   198   201    1
    51   115   113   ar
    52   162   163    1
    53   167   168    1
    54   167   166    1
    55    29    30    1
    56    37    39   ar
    57    37    36   ar
    58    88    87    1
    59   202   201    1
    60    39    40   ar
    61    47    49   ar
    62    47    46   ar
    63   168   169   ar
    64   114   112   ar
    65    49    50   ar
    66    67    68    1
    67    72    73    1
    68    68    69    1
    69   163   166    1
    70   163   164    1
    71    91    30    1
    72    91    90    1
    73    31    32    1
    74   113   112   ar
    75    36    35    1
    76    36    38   ar
    77    40    38   ar
    78    46    45    1
    79    46    48   ar
    80   112   111    1
    81    87    90    1
    82    87    86    1
    83    35    32    1
    84    45    42    1
    85    80    78   ar
    86    80    81   ar
    87    78    77   ar
    88    50    48   ar
    89    50    52   ar
    90    44    43    2
    91    41    42    1
    92    41    33   am
    93    69    71   am
    94    69    70    2
    95    73    76    1
    96    73    74    1
    97    32    33    1
    98   164   165    2
    99    48    51   ar
   100    52    54   ar
   101    42    43    1
   102   107   108    1
   103    81    83   ar
   104    81    79   ar
   105    77    76    1
   106    77    79   ar
   107    33    34    2
   108    83    85   ar
   109   111   108    1
   110    74    75    2
   111   108   109    1
   112   140   139    1
   113    79    82   ar
   114    54    53   ar
   115    85    84   ar
   116    51    53   ar
   117    82    84   ar
   118   188   187    2
   119    92    93    1
   120   139   138   ar
   121   139   137   ar
   122   212   211    1
   123   109   117   am
   124   109   110    2
   125   206   207    1
   126   195   194    1
   127   138   136   ar
   128   137   135   ar
   129   210   211    1
   130   210   207    1
   131   117   118    1
   132   187   186    1
   133   211   213    1
   134    93    96    1
   135    93    94    1
   136   208   207    1
   137   208   209    2
   138   193   194    1
   139   193   190    1
   140   194   196    1
   141    96    97    1
   142   189   190    1
   143   186   185    1
   144   136   134   ar
   145   135   134   ar
   146   192   191    2
   147   118   119    1
   148   118   121    1
   149    94   100   am
   150    94    95    2
   151   120   119    2
   152   190   191    1
   153   100   101    1
   154   183   184   ar
   155   183   181   ar
   156   184   182   ar
   157   119   129   am
   158   121   122    1
   159   134   133    1
   160    97    98    2
   161    97    99   am
   162   103   102    2
   163   181   178   ar
   164   182   180   ar
   165   129   130    1
   166   101   102    1
   167   101   104    1
   168   130   133    1
   169   130   131    1
   170   122   124   ar
   171   122   123   ar
   172   178   180   ar
   173   178   176   ar
   174   180   179   ar
   175   124   126   ar
   176   105   104    1
   177   104   106    1
   178   123   125   ar
   179   176   175    1
   180   176   177   ar
   181   179   177   ar
   182   131   132    2
   183   175   172    1
   184   161   159   ar
   185   161   160   ar
   186   126   127   ar
   187   172   171    1
   188   172   173    1
   189   159   157   ar
   190   125   127   ar
   191   160   158   ar
   192   127   128    1
   193   157   156   ar
   194   157   155   ar
   195   173   174    2
   196   147   145    1
   197   156   154   ar
   198   158   155   ar
   199   155   153   ar
   200   141   142    1
   201   154   153   ar
   202   145   142    1
   203   145   146    1
   204   153   152    1
   205   142   143    1
   206   152   149    1
   207   143   144    2
   208   151   150    2
   209   149   150    1
   210   149   148    1
