@<TRIPOS>MOLECULE
tmp/2vrtD00.pdb
 112 105 0 0 0
SMALL
GASTEIGER

@<TRIPOS>ATOM
      1  N        -25.7400  -12.2790    3.3130 N.3   112  SER112     -0.1217
      2  CA       -24.8740  -13.4520    3.2910 C.3   112  SER112      0.1889
      3  C        -25.3910  -14.5320    4.2380 C.2   112  SER112      0.2288
      4  O        -25.5730  -14.2880    5.4340 O.2   112  SER112     -0.2866
      5  CB       -23.4400  -13.0650    3.6600 C.3   112  SER112      0.2089
      6  OG       -23.3850  -12.4520    4.9360 O.3   112  SER112     -0.2183
      7  N        -24.5340  -17.9340    5.9490 N.3   114  ALA114     -0.1245
      8  CA       -23.4770  -18.8640    6.3150 C.3   114  ALA114      0.1562
      9  C        -24.0740  -20.1980    6.7370 C.2   114  ALA114      0.2260
     10  O        -24.9200  -20.2510    7.6280 O.2   114  ALA114     -0.2867
     11  CB       -22.6160  -18.2830    7.4280 C.3   114  ALA114      0.0290
     12  N        -20.7730  -20.2320    2.4310 N.3   119  VAL119     -0.1245
     13  CA       -21.4070  -18.9500    2.7030 C.3   119  VAL119      0.1561
     14  C        -21.9670  -18.4290    1.3850 C.2   119  VAL119      0.2260
     15  O        -21.2230  -17.9130    0.5450 O.2   119  VAL119     -0.2867
     16  CB       -20.4180  -17.9120    3.3000 C.3   119  VAL119      0.0252
     17  CG1      -21.1520  -16.6310    3.6900 C.3   119  VAL119      0.0019
     18  CG2      -19.6890  -18.4820    4.5050 C.3   119  VAL119      0.0019
     19  N        -23.6830  -15.8670   -0.9330 N.3   121  MET121     -0.1245
     20  CA       -23.9360  -14.4380   -1.0490 C.3   121  MET121      0.1570
     21  C        -24.8940  -14.2790   -2.2260 C.2   121  MET121      0.2261
     22  O        -24.4610  -13.9440   -3.3330 O.2   121  MET121     -0.2867
     23  CB       -22.6380  -13.6620   -1.3100 C.3   121  MET121      0.0387
     24  CG       -21.3910  -14.1980   -0.6050 C.3   121  MET121      0.0595
     25  SD       -21.1960  -13.6590    1.1040 S.3   121  MET121     -0.1393
     26  CE       -20.7830  -11.9250    0.8870 C.3   121  MET121      0.0692
     27  N        -19.7840  -10.6100   -6.9080 N.3   126  ARG126     -0.1231
     28  CA       -18.4390  -10.0530   -6.8060 C.3   126  ARG126      0.1694
     29  C        -17.6600  -10.6300   -5.6190 C.2   126  ARG126      0.2592
     30  O        -16.4460  -10.4420   -5.5130 O.2   126  ARG126     -0.2718
     31  CB       -18.4840   -8.5240   -6.7470 C.3   126  ARG126      0.0321
     32  CG       -17.2980   -7.8710   -7.4340 C.3   126  ARG126      0.0489
     33  CD       -17.4790   -6.3760   -7.5930 C.3   126  ARG126      0.2205
     34  NE       -17.1870   -5.6520   -6.3590 N.pl3 126  ARG126     -0.0865
     35  CZ       -16.6720   -4.4260   -6.3130 C.cat 126  ARG126      0.5346
     36  NH1      -16.3750   -3.7760   -7.4340 N.pl3 126  ARG126      0.1354
     37  NH2      -16.4430   -3.8490   -5.1410 N.pl3 126  ARG126      0.1354
     38  N        -18.3640  -11.3370   -4.7380 N.am  127  ALA127     -0.1966
     39  CA       -17.7400  -12.0260   -3.6120 C.3   127  ALA127      0.1728
     40  C        -17.5520  -13.5090   -3.9250 C.2   127  ALA127      0.2617
     41  O        -18.2790  -14.0720   -4.7460 O.2   127  ALA127     -0.2715
     42  CB       -18.5780  -11.8470   -2.3540 C.3   127  ALA127      0.0334
     43  N        -16.5740  -14.1330   -3.2740 N.am  128  GLY128     -0.1940
     44  CA       -16.3750  -15.5730   -3.4190 C.3   128  GLY128      0.2014
     45  C        -14.9400  -16.0400   -3.3150 C.2   128  GLY128      0.2639
     46  O        -14.0090  -15.3060   -3.6580 O.2   128  GLY128     -0.2714
     47  N        -14.7670  -17.2720   -2.8390 N.am  129  GLY129     -0.1939
     48  CA       -13.4470  -17.8920   -2.7670 C.3   129  GLY129      0.2014
     49  C        -13.3300  -18.9750   -1.7130 C.2   129  GLY129      0.2639
     50  O        -14.3300  -19.4310   -1.1560 O.2   129  GLY129     -0.2714
     51  N        -12.0980  -19.3900   -1.4380 N.am  130  ILE130     -0.1963
     52  CA       -11.8320  -20.3420   -0.3660 C.3   130  ILE130      0.1727
     53  C        -11.2020  -19.6530    0.8400 C.2   130  ILE130      0.2617
     54  O        -10.4110  -18.7220    0.6910 O.2   130  ILE130     -0.2715
     55  CB       -10.9050  -21.4780   -0.8380 C.3   130  ILE130      0.0290
     56  CG1      -11.6120  -22.3430   -1.8830 C.3   130  ILE130      0.0022
     57  CG2      -10.4550  -22.3240    0.3440 C.3   130  ILE130      0.0023
     58  CD1      -10.7000  -23.3310   -2.5760 C.3   130  ILE130      0.0001
     59  N        -11.5580  -20.1170    2.0330 N.am  131  SER131     -0.1936
     60  CA       -11.0160  -19.5580    3.2660 C.3   131  SER131      0.2055
     61  C         -9.5160  -19.3100    3.1450 C.2   131  SER131      0.2643
     62  O         -8.7780  -20.1480    2.6250 O.2   131  SER131     -0.2714
     63  CB       -11.3010  -20.4880    4.4470 C.3   131  SER131      0.2130
     64  OG       -10.6870  -20.0110    5.6300 O.3   131  SER131     -0.2179
     65  N         -9.0710  -18.1550    3.6280 N.am  132  ARG132     -0.1963
     66  CA        -7.6430  -17.8460    3.6880 C.3   132  ARG132      0.1729
     67  C         -6.9160  -18.8430    4.5860 C.2   132  ARG132      0.2616
     68  O         -5.7150  -19.0780    4.4250 O.2   132  ARG132     -0.2715
     69  CB        -7.4190  -16.4200    4.1950 C.3   132  ARG132      0.0348
     70  CG        -8.1770  -15.3280    3.4370 C.3   132  ARG132      0.0492
     71  CD        -7.3440  -14.7190    2.3160 C.3   132  ARG132      0.2205
     72  NE        -7.0880  -15.6630    1.2330 N.pl3 132  ARG132     -0.0865
     73  CZ        -7.9710  -15.9930    0.3030 C.cat 132  ARG132      0.5346
     74  NH1       -9.1790  -15.4510    0.3120 N.pl3 132  ARG132      0.1354
     75  NH2       -7.6440  -16.8430   -0.6580 N.pl3 132  ARG132      0.1354
     76  N         -7.6610  -19.4330    5.5200 N.am  133  ARG133     -0.1977
     77  CA        -7.1290  -20.4200    6.4580 C.3   133  ARG133      0.1597
     78  C         -6.8440  -21.7870    5.8160 C.2   133  ARG133      0.2287
     79  O         -6.4480  -22.7280    6.5090 O.2   133  ARG133     -0.2864
     80  CB        -8.0840  -20.5840    7.6460 C.3   133  ARG133      0.0334
     81  CG        -8.3670  -19.3630    8.5180 C.3   133  ARG133      0.0492
     82  CD        -7.1320  -18.9130    9.3020 C.3   133  ARG133      0.2205
     83  NE        -6.4970  -19.9770   10.0690 N.pl3 133  ARG133     -0.0865
     84  CZ        -7.0150  -20.5570   11.1650 C.cat 133  ARG133      0.5346
     85  NH1       -8.2050  -20.2370   11.6480 N.pl3 133  ARG133      0.1354
     86  NH2       -6.3300  -21.5200   11.7730 N.pl3 133  ARG133      0.1354
     87  N        -18.6990  -18.5870   -0.9850 N.3   157  ILE157     -0.1245
     88  CA       -17.4100  -18.8150   -0.3370 C.3   157  ILE157      0.1561
     89  C        -17.3800  -20.1850    0.3400 C.2   157  ILE157      0.2260
     90  O        -18.3140  -20.5530    1.0550 O.2   157  ILE157     -0.2867
     91  CB       -17.1060  -17.7110    0.7190 C.3   157  ILE157      0.0252
     92  CG1      -16.9720  -16.3380    0.0410 C.3   157  ILE157      0.0019
     93  CG2      -15.8320  -18.0390    1.5160 C.3   157  ILE157      0.0019
     94  CD1      -16.9110  -15.1620    1.0050 C.3   157  ILE157      0.0001
     95  N        -15.9830  -22.3990    3.2360 N.3   159  ARG159     -0.1231
     96  CA       -15.5530  -22.1750    4.6170 C.3   159  ARG159      0.1694
     97  C        -14.2500  -22.9240    4.9130 C.2   159  ARG159      0.2592
     98  O        -13.7490  -23.6640    4.0610 O.2   159  ARG159     -0.2718
     99  CB       -16.6440  -22.6860    5.5570 C.3   159  ARG159      0.0321
    100  CG       -16.9030  -21.8530    6.7860 C.3   159  ARG159      0.0489
    101  CD       -18.1080  -20.9350    6.5940 C.3   159  ARG159      0.2205
    102  NE       -18.9460  -20.9020    7.7940 N.pl3 159  ARG159     -0.0865
    103  CZ       -18.5860  -20.3630    8.9610 C.cat 159  ARG159      0.5346
    104  NH1      -17.3930  -19.7950    9.1120 N.pl3 159  ARG159      0.1354
    105  NH2      -19.4250  -20.3910    9.9880 N.pl3 159  ARG159      0.1354
    106  N        -13.7040  -22.7320    6.1140 N.am  160  THR160     -0.1953
    107  CA       -12.5650  -23.5290    6.5780 C.3   160  THR160      0.1897
    108  C        -13.0090  -24.9760    6.7880 C.2   160  THR160      0.2313
    109  O        -12.2850  -25.9140    6.4410 O.2   160  THR160     -0.2863
    110  CB       -11.9510  -22.9710    7.8880 C.3   160  THR160      0.1794
    111  OG1      -11.6580  -21.5780    7.7250 O.3   160  THR160     -0.2208
    112  CG2      -10.6620  -23.7060    8.2440 C.3   160  THR160      0.0378
@<TRIPOS>BOND
     1    33    32    1
     2    33    34    1
     3    32    31    1
     4    36    35    1
     5    27    28    1
     6    28    31    1
     7    28    29    1
     8    34    35    2
     9    35    37    1
    10    29    30    2
    11    29    38   am
    12    41    40    2
    13    38    39    1
    14    40    39    1
    15    40    43   am
    16    46    45    2
    17    39    42    1
    18    44    45    1
    19    44    43    1
    20    22    21    2
    21    45    47   am
    22    47    48    1
    23    48    49    1
    24    58    56    1
    25    21    20    1
    26    56    55    1
    27    49    51   am
    28    49    50    2
    29    51    52    1
    30    23    20    1
    31    23    24    1
    32    20    19    1
    33    87    88    1
    34    55    52    1
    35    55    57    1
    36    75    73    1
    37    24    25    1
    38    52    53    1
    39    88    89    1
    40    88    91    1
    41    92    91    1
    42    92    94    1
    43    73    74    1
    44    73    72    2
    45    89    90    2
    46    15    14    2
    47    54    53    2
    48    91    93    1
    49    53    59   am
    50    26    25    1
    51    72    71    1
    52    14    13    1
    53    59    60    1
    54    71    70    1
    55    12    13    1
    56    62    61    2
    57    13    16    1
    58    61    60    1
    59    61    65   am
    60    95    96    1
    61    60    63    1
    62     2     1    1
    63     2     5    1
    64     2     3    1
    65    16    17    1
    66    16    18    1
    67    70    69    1
    68    65    66    1
    69     5     6    1
    70    66    69    1
    71    66    67    1
    72    98    97    2
    73     3     4    2
    74    68    67    2
    75    63    64    1
    76    67    76   am
    77    96    97    1
    78    96    99    1
    79    97   106   am
    80    76    77    1
    81    99   100    1
    82    78    77    1
    83    78    79    2
    84     7     8    1
    85   106   107    1
    86     8     9    1
    87     8    11    1
    88   109   108    2
    89    77    80    1
    90   107   108    1
    91   107   110    1
    92   101   100    1
    93   101   102    1
    94     9    10    2
    95    80    81    1
    96   111   110    1
    97   102   103    2
    98   110   112    1
    99    81    82    1
   100   103   104    1
   101   103   105    1
   102    82    83    1
   103    83    84    2
   104    84    85    1
   105    84    86    1
