@<TRIPOS>MOLECULE
tmp/2vrtB00.pdb
 128 120 0 0 0
SMALL
GASTEIGER

@<TRIPOS>ATOM
      1  N        -56.6890  -65.0440   90.9030 N.3    32  SER32      -0.1217
      2  CA       -56.5250  -63.8540   91.7300 C.3    32  SER32       0.1889
      3  C        -56.5040  -62.5900   90.8780 C.2    32  SER32       0.2288
      4  O        -55.7710  -62.5060   89.8930 O.2    32  SER32      -0.2866
      5  CB       -55.2440  -63.9510   92.5600 C.3    32  SER32       0.2089
      6  OG       -54.1020  -64.0470   91.7270 O.3    32  SER32      -0.2183
      7  N        -55.6540  -58.7160   90.9960 N.3    34  ALA34      -0.1245
      8  CA       -54.9930  -57.6460   91.7340 C.3    34  ALA34       0.1562
      9  C        -55.4470  -56.2700   91.2590 C.2    34  ALA34       0.2260
     10  O        -55.5160  -56.0050   90.0560 O.2    34  ALA34      -0.2867
     11  CB       -53.4790  -57.7780   91.6190 C.3    34  ALA34       0.0290
     12  N        -56.4840  -57.3100   96.2420 N.3    39  VAL39      -0.1245
     13  CA       -56.3700  -58.5220   95.4440 C.3    39  VAL39       0.1561
     14  C        -57.6380  -59.3330   95.6670 C.2    39  VAL39       0.2260
     15  O        -57.9350  -59.7280   96.7970 O.2    39  VAL39      -0.2867
     16  CB       -55.1390  -59.3790   95.8370 C.3    39  VAL39       0.0252
     17  CG1      -55.0130  -60.5930   94.9180 C.3    39  VAL39       0.0019
     18  CG2      -53.8640  -58.5530   95.7910 C.3    39  VAL39       0.0019
     19  N        -59.6720  -62.7070   95.4160 N.3    41  MET41      -0.1245
     20  CA       -59.5370  -64.1490   95.3110 C.3    41  MET41       0.1570
     21  C        -60.9480  -64.7000   95.1500 C.2    41  MET41       0.2261
     22  O        -61.4730  -65.3270   96.0750 O.2    41  MET41      -0.2867
     23  CB       -58.8870  -64.7280   96.5750 C.3    41  MET41       0.0387
     24  CG       -57.6480  -63.9880   97.0720 C.3    41  MET41       0.0595
     25  SD       -56.1690  -64.2750   96.0800 S.3    41  MET41      -0.1393
     26  CE       -55.7910  -65.9810   96.4870 C.3    41  MET41       0.0692
     27  N        -60.6950  -68.8710  101.8630 N.3    46  ARG46      -0.1231
     28  CA       -59.6380  -69.1830  102.8370 C.3    46  ARG46       0.1694
     29  C        -58.5030  -68.1560  102.8530 C.2    46  ARG46       0.2592
     30  O        -57.8270  -67.9860  103.8710 O.2    46  ARG46      -0.2718
     31  CB       -59.0760  -70.5890  102.5760 C.3    46  ARG46       0.0321
     32  CG       -59.9790  -71.7350  102.9460 C.3    46  ARG46       0.0489
     33  CD       -59.1840  -73.0300  102.9950 C.3    46  ARG46       0.2205
     34  NE       -58.4150  -73.2590  101.7700 N.pl3  46  ARG46      -0.0865
     35  CZ       -58.9220  -73.7440  100.6360 C.cat  46  ARG46       0.5346
     36  NH1      -60.2080  -74.0580  100.5630 N.pl3  46  ARG46       0.1354
     37  NH2      -58.1460  -73.9120   99.5720 N.pl3  46  ARG46       0.1354
     38  N        -58.3040  -67.4790  101.7250 N.am   47  ALA47      -0.1966
     39  CA       -57.3070  -66.4180  101.6160 C.3    47  ALA47       0.1728
     40  C        -57.9030  -65.0560  101.9660 C.2    47  ALA47       0.2617
     41  O        -59.1040  -64.8320  101.7960 O.2    47  ALA47      -0.2715
     42  CB       -56.7090  -66.3940  100.2160 C.3    47  ALA47       0.0334
     43  N        -57.0550  -64.1550  102.4570 N.am   48  GLY48      -0.1940
     44  CA       -57.4720  -62.7930  102.7750 C.3    48  GLY48       0.2014
     45  C        -56.6540  -62.1330  103.8710 C.2    48  GLY48       0.2639
     46  O        -55.8780  -62.7950  104.5700 O.2    48  GLY48      -0.2714
     47  N        -56.8320  -60.8210  104.0180 N.am   49  GLY49      -0.1939
     48  CA       -56.2250  -60.0950  105.1230 C.3    49  GLY49       0.2014
     49  C        -55.5500  -58.7840  104.7780 C.2    49  GLY49       0.2639
     50  O        -56.0370  -58.0070  103.9550 O.2    49  GLY49      -0.2714
     51  N        -54.4110  -58.5620  105.4250 N.am   50  ILE50      -0.1963
     52  CA       -53.7080  -57.2890  105.4130 C.3    50  ILE50       0.1727
     53  C        -52.2550  -57.5000  105.0130 C.2    50  ILE50       0.2617
     54  O        -51.5540  -58.3050  105.6310 O.2    50  ILE50      -0.2715
     55  CB       -53.7550  -56.6470  106.8210 C.3    50  ILE50       0.0290
     56  CG1      -55.2160  -56.3200  107.2020 C.3    50  ILE50       0.0022
     57  CG2      -52.8400  -55.4190  106.8760 C.3    50  ILE50       0.0023
     58  CD1      -55.4550  -55.9020  108.6430 C.3    50  ILE50       0.0001
     59  N        -51.8050  -56.7780  103.9880 N.am   51  SER51      -0.1936
     60  CA       -50.4000  -56.8090  103.5780 C.3    51  SER51       0.2055
     61  C        -49.4900  -56.7800  104.8050 C.2    51  SER51       0.2643
     62  O        -49.6400  -55.9160  105.6740 O.2    51  SER51      -0.2714
     63  CB       -50.0840  -55.6370  102.6440 C.3    51  SER51       0.2130
     64  OG       -48.6430  -55.4810  102.4930 O.3    51  SER51      -0.2179
     65  N        -48.5540  -57.7220  104.8700 N.am   52  ARG52      -0.1963
     66  CA       -47.7080  -57.8810  106.0470 C.3    52  ARG52       0.1729
     67  C        -46.8990  -56.6170  106.3190 C.2    52  ARG52       0.2616
     68  O        -46.2590  -56.4910  107.3630 O.2    52  ARG52      -0.2715
     69  CB       -46.7720  -59.0780  105.8760 C.3    52  ARG52       0.0348
     70  CG       -47.4560  -60.3980  105.5160 C.3    52  ARG52       0.0492
     71  CD       -47.7810  -61.2350  106.7470 C.3    52  ARG52       0.2205
     72  NE       -48.8110  -60.6240  107.5820 N.pl3  52  ARG52      -0.0865
     73  CZ       -50.1060  -60.6470  107.3100 C.cat  52  ARG52       0.5346
     74  NH1      -50.5450  -61.2590  106.2210 N.pl3  52  ARG52       0.1354
     75  NH2      -50.9730  -60.0860  108.1390 N.pl3  52  ARG52       0.1354
     76  N        -46.9320  -55.6840  105.3730 N.am   53  ARG53      -0.1977
     77  CA       -46.0460  -54.5270  105.4060 C.3    53  ARG53       0.1597
     78  C        -46.7360  -53.3230  106.0400 C.2    53  ARG53       0.2287
     79  O        -46.2240  -52.2050  105.9870 O.2    53  ARG53      -0.2864
     80  CB       -45.5680  -54.1780  103.9970 C.3    53  ARG53       0.0334
     81  CG       -44.4330  -55.0740  103.4770 C.3    53  ARG53       0.0492
     82  CD       -43.9120  -54.5040  102.1570 C.3    53  ARG53       0.2205
     83  NE       -43.8220  -53.0430  102.2370 N.pl3  53  ARG53      -0.0865
     84  CZ       -42.6790  -52.3680  102.3730 C.cat  53  ARG53       0.5346
     85  NH1      -41.5180  -53.0190  102.4080 N.pl3  53  ARG53       0.1354
     86  NH2      -42.7010  -51.0580  102.6120 N.pl3  53  ARG53       0.1354
     87  N        -57.4160  -59.5610   99.8450 N.3    78  ILE78      -0.1245
     88  CA       -56.2940  -58.9970  100.6020 C.3    78  ILE78       0.1561
     89  C        -56.1720  -57.4900  100.3640 C.2    78  ILE78       0.2260
     90  O        -56.2440  -57.0300   99.2220 O.2    78  ILE78      -0.2867
     91  CB       -54.9510  -59.6860  100.2250 C.3    78  ILE78       0.0252
     92  CG1      -55.0240  -61.1970  100.4790 C.3    78  ILE78       0.0019
     93  CG2      -53.7740  -59.0670  100.9930 C.3    78  ILE78       0.0019
     94  CD1      -54.0000  -62.0130   99.7040 C.3    78  ILE78       0.0001
     95  N        -53.9940  -54.3800   99.8860 N.3    80  ARG80      -0.1231
     96  CA       -52.6530  -54.1280   99.3570 C.3    80  ARG80       0.1694
     97  C        -51.8720  -53.1800  100.2600 C.2    80  ARG80       0.2593
     98  O        -52.4520  -52.4850  101.1020 O.2    80  ARG80      -0.2718
     99  CB       -52.7530  -53.5030   97.9640 C.3    80  ARG80       0.0321
    100  CG       -51.8580  -54.1070   96.9000 C.3    80  ARG80       0.0489
    101  CD       -52.5820  -55.2280   96.1570 C.3    80  ARG80       0.2205
    102  NE       -52.1370  -55.4530   94.7750 N.pl3  80  ARG80      -0.0865
    103  CZ       -50.9140  -55.2200   94.2930 C.cat  80  ARG80       0.5346
    104  NH1      -49.9410  -54.7440   95.0610 N.pl3  80  ARG80       0.1354
    105  NH2      -50.6610  -55.4730   93.0160 N.pl3  80  ARG80       0.1354
    106  N        -50.5530  -53.1540  100.0680 N.am   81  THR81      -0.1939
    107  CA       -49.6660  -52.2340  100.7840 C.3    81  THR81       0.2028
    108  C        -49.9880  -50.7790  100.4350 C.2    81  THR81       0.2642
    109  O        -49.9110  -49.8970  101.2940 O.2    81  THR81      -0.2714
    110  CB       -48.1730  -52.5200  100.4800 C.3    81  THR81       0.1808
    111  OG1      -47.9230  -53.9290  100.5620 O.3    81  THR81      -0.2208
    112  CG2      -47.2610  -51.7940  101.4660 C.3    81  THR81       0.0379
    113  N        -50.3580  -50.5420   99.1760 N.am   82  ALA82      -0.1977
    114  CA       -50.7400  -49.2100   98.7020 C.3    82  ALA82       0.1597
    115  C        -52.0500  -48.7160   99.3250 C.2    82  ALA82       0.2287
    116  O        -52.3780  -47.5290   99.2400 O.2    82  ALA82      -0.2864
    117  CB       -50.8330  -49.1980   97.1800 C.3    82  ALA82       0.0319
    118  N        -43.2390  -49.5970   92.6040 N.3   268  ARG268     -0.1245
    119  CA       -43.0450  -49.5430   94.0480 C.3   268  ARG268      0.1563
    120  C        -41.8210  -48.6910   94.3690 C.2   268  ARG268      0.2260
    121  O        -40.7070  -48.9990   93.9370 O.2   268  ARG268     -0.2867
    122  CB       -42.8960  -50.9500   94.6330 C.3   268  ARG268      0.0307
    123  CG       -44.1270  -51.8090   94.7730 C.3   268  ARG268      0.0489
    124  CD       -45.1060  -51.1390   95.6830 C.3   268  ARG268      0.2205
    125  NE       -44.5870  -50.9680   97.0380 N.pl3 268  ARG268     -0.0865
    126  CZ       -44.6520  -51.8580   98.0190 C.cat 268  ARG268      0.5346
    127  NH1      -45.3320  -52.9710   97.8010 N.pl3 268  ARG268      0.1354
    128  NH2      -44.0990  -51.6320   99.2130 N.pl3 268  ARG268      0.1354
@<TRIPOS>BOND
     1     4     3    2
     2    10     9    2
     3     3     2    1
     4     1     2    1
     5     7     8    1
     6     9     8    1
     7    11     8    1
     8     6     5    1
     9     2     5    1
    10   118   119    1
    11   105   103    1
    12   121   120    2
    13   119   120    1
    14   119   122    1
    15   103   102    2
    16   103   104    1
    17   122   123    1
    18   123   124    1
    19   102   101    1
    20    17    16    1
    21    21    20    1
    22    21    22    2
    23    20    19    1
    24    20    23    1
    25    13    14    1
    26    13    16    1
    27    13    12    1
    28    14    15    2
    29   124   125    1
    30    18    16    1
    31    25    26    1
    32    25    24    1
    33   101   100    1
    34    23    24    1
    35   100    99    1
    36   125   126    2
    37   117   114    1
    38   127   126    1
    39    99    96    1
    40   126   128    1
    41   114   113    1
    42   114   115    1
    43   113   108   am
    44    90    89    2
    45   116   115    2
    46    96    95    1
    47    96    97    1
    48    37    35    1
    49    94    92    1
    50    87    88    1
    51   106    97   am
    52   106   107    1
    53    42    39    1
    54    91    92    1
    55    91    88    1
    56    91    93    1
    57    97    98    2
    58    89    88    1
    59   108   107    1
    60   108   109    2
    61   110   111    1
    62   110   107    1
    63   110   112    1
    64    36    35    1
    65    35    34    2
    66    39    38    1
    67    39    40    1
    68    38    29   am
    69    34    33    1
    70    41    40    2
    71    27    28    1
    72    40    43   am
    73    82    83    1
    74    82    81    1
    75    83    84    2
    76    84    85    1
    77    84    86    1
    78    43    44    1
    79    64    63    1
    80    31    28    1
    81    31    32    1
    82    63    60    1
    83    44    45    1
    84    28    29    1
    85    29    30    2
    86    32    33    1
    87    81    80    1
    88    60    59    1
    89    60    61    1
    90    45    47   am
    91    45    46    2
    92    50    49    2
    93    59    53   am
    94    80    77    1
    95    47    48    1
    96    49    48    1
    97    49    51   am
    98    61    65   am
    99    61    62    2
   100    65    66    1
   101    53    52    1
   102    53    54    2
   103    76    77    1
   104    76    67   am
   105    77    78    1
   106    52    51    1
   107    52    55    1
   108    70    69    1
   109    70    71    1
   110    69    66    1
   111    79    78    2
   112    66    67    1
   113    74    73    1
   114    67    68    2
   115    71    72    1
   116    55    57    1
   117    55    56    1
   118    56    58    1
   119    73    72    2
   120    73    75    1
