@<TRIPOS>MOLECULE
tmp/2vrxB00.pdb
 188 177 0 0 0
SMALL
GASTEIGER

@<TRIPOS>ATOM
      1  N         44.4650   53.0570   62.2220 N.3    23  LEU23      -0.1231
      2  CA        43.9010   52.4840   61.0010 C.3    23  LEU23       0.1693
      3  C         43.9280   53.4180   59.7790 C.2    23  LEU23       0.2592
      4  O         44.2210   52.9550   58.6710 O.2    23  LEU23      -0.2718
      5  CB        42.4900   51.9230   61.2440 C.3    23  LEU23       0.0284
      6  CG        42.3690   50.6080   62.0280 C.3    23  LEU23       0.0019
      7  CD1       40.9040   50.2650   62.2580 C.3    23  LEU23       0.0001
      8  CD2       43.0820   49.4570   61.3240 C.3    23  LEU23       0.0001
      9  N         43.6300   54.7100   59.9510 N.am   24  GLY24      -0.1957
     10  CA        43.2910   55.3230   61.2400 C.3    24  GLY24       0.1869
     11  C         42.6240   56.6820   61.1280 C.2    24  GLY24       0.2309
     12  O         43.0670   57.6580   61.7380 O.2    24  GLY24      -0.2863
     13  N         41.5440   56.3520   64.9780 N.3    27  VAL27      -0.1245
     14  CA        40.9120   55.0470   65.1170 C.3    27  VAL27       0.1561
     15  C         42.0130   53.9990   65.1270 C.2    27  VAL27       0.2260
     16  O         42.8560   53.9600   64.2260 O.2    27  VAL27      -0.2867
     17  CB        39.9260   54.7640   63.9660 C.3    27  VAL27       0.0252
     18  CG1       39.1820   53.4590   64.2030 C.3    27  VAL27       0.0019
     19  CG2       38.9370   55.9200   63.8080 C.3    27  VAL27       0.0019
     20  N         37.9410   47.9870   66.4130 N.3    40  ALA40      -0.1245
     21  CA        38.5460   49.2930   66.2180 C.3    40  ALA40       0.1562
     22  C         38.1510   50.1630   67.3940 C.2    40  ALA40       0.2260
     23  O         37.0350   50.0660   67.8940 O.2    40  ALA40      -0.2867
     24  CB        38.0950   49.9100   64.9030 C.3    40  ALA40       0.0290
     25  N         37.9400   54.0740   68.4220 N.3    42  LYS42      -0.1245
     26  CA        38.0130   55.4790   68.0530 C.3    42  LYS42       0.1561
     27  C         38.1450   56.3380   69.3020 C.2    42  LYS42       0.2260
     28  O         37.3260   56.2600   70.2190 O.2    42  LYS42      -0.2867
     29  CB        36.7950   55.9030   67.2250 C.3    42  LYS42       0.0271
     30  CG        36.8270   57.3870   66.8130 C.3    42  LYS42       0.0035
     31  CD        36.2160   57.5980   65.4390 C.3    42  LYS42       0.0206
     32  CE        34.7380   57.9060   65.4900 C.3    42  LYS42       0.1093
     33  NZ        34.3180   58.4740   64.1770 N.3    42  LYS42      -0.1314
     34  N         28.0090   64.5770   68.0520 N.3    58  LEU58      -0.1245
     35  CA        28.5510   63.3010   68.5240 C.3    58  LEU58       0.1561
     36  C         27.5390   62.5680   69.4000 C.2    58  LEU58       0.2260
     37  O         27.3490   61.3580   69.2550 O.2    58  LEU58      -0.2867
     38  CB        29.8760   63.5270   69.2620 C.3    58  LEU58       0.0270
     39  CG        30.8060   62.3820   69.7010 C.3    58  LEU58       0.0019
     40  CD1       30.6540   62.1020   71.1850 C.3    58  LEU58       0.0001
     41  CD2       30.6830   61.0960   68.8670 C.3    58  LEU58       0.0001
     42  N         25.0350   60.9880   67.2600 N.3    61  GLU61      -0.1245
     43  CA        25.6740   59.8820   66.5280 C.3    61  GLU61       0.1567
     44  C         25.7880   58.6020   67.3600 C.2    61  GLU61       0.2260
     45  O         25.4620   57.5170   66.8820 O.2    61  GLU61      -0.2867
     46  CB        27.0750   60.2770   66.0690 C.3    61  GLU61       0.0388
     47  CG        27.1610   61.3280   64.9800 C.3    61  GLU61       0.1160
     48  CD        28.6070   61.6700   64.6710 C.2    61  GLU61       0.3649
     49  OE1       29.3210   60.7970   64.1300 O.co2  61  GLU61      -0.2457
     50  OE2       29.0370   62.8020   64.9850 O.co2  61  GLU61      -0.2457
     51  N         23.8960   55.0360   66.4950 N.3    65  GLN65      -0.1245
     52  CA        24.6730   53.8570   66.0690 C.3    65  GLN65       0.1566
     53  C         24.7530   52.7680   67.1500 C.2    65  GLN65       0.2260
     54  O         24.8050   51.5680   66.8320 O.2    65  GLN65      -0.2867
     55  CB        26.0740   54.2610   65.5920 C.3    65  GLN65       0.0367
     56  CG        26.8300   53.1550   64.8240 C.3    65  GLN65       0.0905
     57  CD        28.1660   53.6130   64.2660 C.2    65  GLN65       0.2608
     58  OE1       28.5600   54.7720   64.4250 O.2    65  GLN65      -0.2717
     59  NE2       28.8690   52.7030   63.5890 N.am   65  GLN65      -0.0878
     60  N         27.9700   49.0570   60.4440 N.3    74  LEU74      -0.1245
     61  CA        29.1650   48.9160   61.2750 C.3    74  LEU74       0.1561
     62  C         28.7550   49.0010   62.7440 C.2    74  LEU74       0.2260
     63  O         28.1940   50.0080   63.1800 O.2    74  LEU74      -0.2867
     64  CB        30.2240   49.9770   60.9390 C.3    74  LEU74       0.0270
     65  CG        31.6030   49.6950   61.5350 C.3    74  LEU74       0.0019
     66  CD1       32.3490   48.6240   60.7040 C.3    74  LEU74       0.0001
     67  CD2       32.4220   50.9920   61.6740 C.3    74  LEU74       0.0001
     68  N         28.6450   49.4410   66.6860 N.3    76  MET76      -0.1245
     69  CA        29.2630   50.0780   67.8450 C.3    76  MET76       0.1570
     70  C         28.9290   49.1960   69.0390 C.2    76  MET76       0.2261
     71  O         27.7930   49.1880   69.5170 O.2    76  MET76      -0.2867
     72  CB        28.7770   51.5130   68.0620 C.3    76  MET76       0.0387
     73  CG        29.5340   52.2440   69.1840 C.3    76  MET76       0.0595
     74  SD        28.8240   53.8530   69.6050 S.3    76  MET76      -0.1393
     75  CE        29.4870   54.8850   68.3140 C.3    76  MET76       0.0692
     76  N         35.1780   54.9230   71.4800 N.3    88  LEU88      -0.1245
     77  CA        34.0980   54.2110   70.8070 C.3    88  LEU88       0.1561
     78  C         34.6250   52.8620   70.3560 C.2    88  LEU88       0.2260
     79  O         35.6100   52.7850   69.6220 O.2    88  LEU88      -0.2867
     80  CB        33.5850   55.0180   69.6010 C.3    88  LEU88       0.0270
     81  CG        33.1860   56.4780   69.8830 C.3    88  LEU88       0.0019
     82  CD1       32.6400   57.1600   68.6330 C.3    88  LEU88       0.0001
     83  CD2       32.1660   56.5570   71.0150 C.3    88  LEU88       0.0001
     84  N         34.3000   49.9010   68.0970 N.3    90  LEU90      -0.1231
     85  CA        33.6530   49.7110   66.8010 C.3    90  LEU90       0.1693
     86  C         34.0380   48.3920   66.1640 C.2    90  LEU90       0.2592
     87  O         35.1360   47.8830   66.3800 O.2    90  LEU90      -0.2718
     88  CB        34.0000   50.8580   65.8440 C.3    90  LEU90       0.0284
     89  CG        33.6180   52.2790   66.2600 C.3    90  LEU90       0.0019
     90  CD1       34.2980   53.3190   65.3690 C.3    90  LEU90       0.0001
     91  CD2       32.1040   52.4820   66.2690 C.3    90  LEU90       0.0001
     92  N         33.1210   47.8530   65.3720 N.am   91  GLU91      -0.1966
     93  CA        33.4240   46.7180   64.5040 C.3    91  GLU91       0.1733
     94  C         34.6120   47.0500   63.5860 C.2    91  GLU91       0.2616
     95  O         34.6650   48.1270   62.9750 O.2    91  GLU91      -0.2715
     96  CB        32.1830   46.3490   63.7010 C.3    91  GLU91       0.0429
     97  CG        32.4150   45.3170   62.6100 C.3    91  GLU91       0.1163
     98  CD        31.1520   44.9700   61.8600 C.2    91  GLU91       0.3649
     99  OE1       31.2310   44.0940   60.9850 O.co2  91  GLU91      -0.2457
    100  OE2       30.0770   45.5470   62.1460 O.co2  91  GLU91      -0.2457
    101  N         35.5860   46.1440   63.5280 N.am   92  PHE92      -0.1960
    102  CA        36.6660   46.2590   62.5590 C.3    92  PHE92       0.1771
    103  C         36.1830   45.7670   61.1850 C.2    92  PHE92       0.2619
    104  O         35.6740   44.6490   61.0600 O.2    92  PHE92      -0.2715
    105  CB        37.9000   45.4590   63.0240 C.3    92  PHE92       0.0574
    106  CG        39.0690   45.5420   62.0820 C.ar   92  PHE92      -0.0200
    107  CD1       39.5650   46.7750   61.6650 C.ar   92  PHE92      -0.0042
    108  CD2       39.6820   44.3820   61.6190 C.ar   92  PHE92      -0.0042
    109  CE1       40.6460   46.8410   60.7860 C.ar   92  PHE92      -0.0003
    110  CE2       40.7660   44.4450   60.7380 C.ar   92  PHE92      -0.0003
    111  CZ        41.2440   45.6700   60.3270 C.ar   92  PHE92      -0.0000
    112  N         36.3520   46.6070   60.1660 N.am   93  ALA93      -0.1964
    113  CA        36.0470   46.2260   58.7800 C.3    93  ALA93       0.1713
    114  C         37.3450   45.8970   58.0400 C.2    93  ALA93       0.2458
    115  O         38.0550   46.8050   57.5930 O.2    93  ALA93      -0.2730
    116  CB        35.2980   47.3540   58.0700 C.3    93  ALA93       0.0333
    117  N         37.6580   44.5940   57.9040 N.am   94  PRO94      -0.2716
    118  CA        38.9920   44.1590   57.4470 C.3    94  PRO94       0.1536
    119  C         39.3700   44.6440   56.0450 C.2    94  PRO94       0.2598
    120  O         40.5490   44.9110   55.7870 O.2    94  PRO94      -0.2715
    121  CB        38.8880   42.6250   57.4500 C.3    94  PRO94       0.0310
    122  CG        37.7060   42.3030   58.3020 C.3    94  PRO94       0.0237
    123  CD        36.7650   43.4490   58.1640 C.3    94  PRO94       0.0939
    124  N         38.3820   44.7660   55.1580 N.am   95  ARG95      -0.1964
    125  CA        38.6440   45.1710   53.7760 C.3    95  ARG95       0.1729
    126  C         38.6520   46.6930   53.5810 C.2    95  ARG95       0.2617
    127  O         38.9490   47.1910   52.4930 O.2    95  ARG95      -0.2715
    128  CB        37.6820   44.4700   52.8170 C.3    95  ARG95       0.0348
    129  CG        38.0150   42.9940   52.6120 C.3    95  ARG95       0.0492
    130  CD        37.3620   42.4430   51.3590 C.3    95  ARG95       0.2205
    131  NE        37.4850   40.9850   51.2810 N.pl3  95  ARG95      -0.0865
    132  CZ        36.8860   40.2160   50.3720 C.cat  95  ARG95       0.5346
    133  NH1       36.1040   40.7540   49.4380 N.pl3  95  ARG95       0.1354
    134  NH2       37.0650   38.9000   50.3970 N.pl3  95  ARG95       0.1354
    135  N         38.3480   47.4240   54.6460 N.am   96  GLY96      -0.1940
    136  CA        38.5780   48.8620   54.6710 C.3    96  GLY96       0.2014
    137  C         37.5950   49.6700   53.8540 C.2    96  GLY96       0.2638
    138  O         36.4330   49.2990   53.7050 O.2    96  GLY96      -0.2714
    139  N         38.0930   50.7790   53.3200 N.am   97  GLU97      -0.1977
    140  CA        37.2620   51.8010   52.6980 C.3    97  GLU97       0.1602
    141  C         36.7450   51.3760   51.3380 C.2    97  GLU97       0.2287
    142  O         37.5260   51.0320   50.4520 O.2    97  GLU97      -0.2864
    143  CB        38.0610   53.1000   52.5730 C.3    97  GLU97       0.0415
    144  CG        38.2530   53.8270   53.8970 C.3    97  GLU97       0.1163
    145  CD        39.4910   54.7040   53.9200 C.2    97  GLU97       0.3649
    146  OE1       40.5560   54.2550   53.4460 O.co2  97  GLU97      -0.2457
    147  OE2       39.4060   55.8360   54.4420 O.co2  97  GLU97      -0.2457
    148  N         38.0710   53.6240   48.3300 N.3   100  LYS100     -0.1245
    149  CA        39.4040   53.3120   47.8030 C.3   100  LYS100      0.1561
    150  C         39.3440   52.1540   46.8160 C.2   100  LYS100      0.2260
    151  O         40.0630   52.1280   45.8170 O.2   100  LYS100     -0.2867
    152  CB        40.3750   53.0090   48.9440 C.3   100  LYS100      0.0271
    153  CG        40.7060   54.2380   49.7670 C.3   100  LYS100      0.0035
    154  CD        41.9900   54.0730   50.5410 C.3   100  LYS100      0.0206
    155  CE        42.4310   55.4160   51.1170 C.3   100  LYS100      0.1093
    156  NZ        43.7880   55.3380   51.7280 N.3   100  LYS100     -0.1314
    157  N         32.2370   50.9710   54.5200 N.3   143  LEU143     -0.1245
    158  CA        33.4150   50.1170   54.7030 C.3   143  LEU143      0.1561
    159  C         33.0690   48.7180   54.2290 C.2   143  LEU143      0.2260
    160  O         31.9210   48.4480   53.8750 O.2   143  LEU143     -0.2867
    161  CB        33.8380   50.0890   56.1790 C.3   143  LEU143      0.0270
    162  CG        34.3680   51.3830   56.8060 C.3   143  LEU143      0.0019
    163  CD1       34.5850   51.1820   58.3070 C.3   143  LEU143      0.0001
    164  CD2       35.6610   51.8610   56.1260 C.3   143  LEU143      0.0001
    165  N         29.0220   52.9490   57.7750 N.3   153  ALA153     -0.1231
    166  CA        30.0140   53.1780   58.8210 C.3   153  ALA153      0.1694
    167  C         29.9200   54.5220   59.5540 C.2   153  ALA153      0.2592
    168  O         30.2960   54.6200   60.7310 O.2   153  ALA153     -0.2718
    169  CB        31.4140   52.9600   58.2720 C.3   153  ALA153      0.0304
    170  N         29.3900   55.5320   58.8800 N.am  154  ASP154     -0.1960
    171  CA        29.4670   56.9160   59.3530 C.3   154  ASP154      0.1840
    172  C         28.0560   57.4920   59.4590 C.2   154  ASP154      0.2622
    173  O         27.3920   57.7270   58.4440 O.2   154  ASP154     -0.2715
    174  CB        30.3050   57.7340   58.3680 C.3   154  ASP154      0.1450
    175  CG        30.5960   59.1440   58.8550 C.2   154  ASP154      0.3671
    176  OD1       29.6900   59.8080   59.4170 O.co2 154  ASP154     -0.2456
    177  OD2       31.7470   59.6030   58.6430 O.co2 154  ASP154     -0.2456
    178  N         27.6050   57.7100   60.6880 N.am  155  PHE155     -0.1974
    179  CA        26.2480   58.1770   60.9550 C.3   155  PHE155      0.1639
    180  C         26.2340   59.6490   61.3720 C.2   155  PHE155      0.2290
    181  O         25.3570   60.0900   62.1180 O.2   155  PHE155     -0.2864
    182  CB        25.5950   57.2860   62.0210 C.3   155  PHE155      0.0560
    183  CG        25.1630   55.9560   61.4890 C.ar  155  PHE155     -0.0200
    184  CD1       23.8430   55.7460   61.1140 C.ar  155  PHE155     -0.0042
    185  CD2       26.0830   54.9290   61.3230 C.ar  155  PHE155     -0.0042
    186  CE1       23.4370   54.5140   60.5900 C.ar  155  PHE155     -0.0003
    187  CE2       25.6870   53.7000   60.8020 C.ar  155  PHE155     -0.0003
    188  CZ        24.3610   53.5000   60.4360 C.ar  155  PHE155     -0.0000
@<TRIPOS>BOND
     1   151   150    2
     2   150   149    1
     3   149   148    1
     4   149   152    1
     5   152   153    1
     6   133   132    1
     7   153   154    1
     8   132   134    1
     9   132   131    2
    10   142   141    2
    11   154   155    1
    12   155   156    1
    13   131   130    1
    14   141   140    1
    15   130   129    1
    16   127   126    2
    17   143   140    1
    18   143   144    1
    19   129   128    1
    20   140   139    1
    21   128   125    1
    22   139   137   am
    23   146   145   ar
    24   126   125    1
    25   126   135   am
    26   138   137    2
    27   125   124    1
    28   137   136    1
    29   160   159    2
    30   144   145    1
    31   145   147   ar
    32   159   158    1
    33   157   158    1
    34   135   136    1
    35   158   161    1
    36   124   119   am
    37   120   119    2
    38   119   118    1
    39   164   162    1
    40   161   162    1
    41   162   163    1
    42   118   121    1
    43   118   117    1
    44   121   122    1
    45   115   114    2
    46   165   166    1
    47   117   114   am
    48   117   123    1
    49   114   113    1
    50   116   113    1
    51   123   122    1
    52   169   166    1
    53   174   175    1
    54   174   171    1
    55   173   172    2
    56   177   175   ar
    57     4     3    2
    58   113   112    1
    59   166   167    1
    60   175   176   ar
    61   170   171    1
    62   170   167   am
    63   171   172    1
    64   172   178   am
    65   167   168    2
    66     3     9   am
    67     3     2    1
    68     9    10    1
    69   112   103   am
    70   111   110   ar
    71   111   109   ar
    72   188   186   ar
    73   188   187   ar
    74    60    61    1
    75   186   184   ar
    76   178   179    1
    77    66    65    1
    78   110   108   ar
    79   109   107   ar
    80   187   185   ar
    81    64    61    1
    82    64    65    1
    83   179   180    1
    84   179   182    1
    85    99    98   ar
    86     2     5    1
    87     2     1    1
    88   104   103    2
    89   184   183   ar
    90    11    10    1
    91    11    12    2
    92   103   102    1
    93     5     6    1
    94    61    62    1
    95   185   183   ar
    96     8     6    1
    97   180   181    2
    98   183   182    1
    99    65    67    1
   100   108   106   ar
   101   107   106   ar
   102    98   100   ar
   103    98    97    1
   104     6     7    1
   105   106   105    1
   106   102   105    1
   107   102   101    1
   108    97    96    1
   109    62    63    2
   110    95    94    2
   111   101    94   am
   112    94    93    1
   113    59    57   am
   114    96    93    1
   115    19    17    1
   116    17    18    1
   117    17    14    1
   118    49    48   ar
   119    33    32    1
   120    16    15    2
   121    57    58    2
   122    57    56    1
   123    93    92    1
   124    48    47    1
   125    48    50   ar
   126    56    55    1
   127    24    21    1
   128    13    14    1
   129    47    46    1
   130    14    15    1
   131    90    89    1
   132    92    86   am
   133    31    32    1
   134    31    30    1
   135    55    52    1
   136    88    89    1
   137    88    85    1
   138    52    51    1
   139    52    53    1
   140    46    43    1
   141    86    87    2
   142    86    85    1
   143    21    20    1
   144    21    22    1
   145    89    91    1
   146    43    42    1
   147    43    44    1
   148    68    69    1
   149    85    84    1
   150    30    29    1
   151    54    53    2
   152    45    44    2
   153    29    26    1
   154    22    23    2
   155    69    72    1
   156    69    70    1
   157    34    35    1
   158    26    25    1
   159    26    27    1
   160    72    73    1
   161    75    74    1
   162    35    38    1
   163    35    36    1
   164    82    81    1
   165    41    39    1
   166    70    71    2
   167    73    74    1
   168    37    36    2
   169    38    39    1
   170    27    28    2
   171    80    81    1
   172    80    77    1
   173    79    78    2
   174    39    40    1
   175    81    83    1
   176    78    77    1
   177    77    76    1
