@<TRIPOS>MOLECULE
tmp/2vs1A00.pdb
 173 172 0 0 0
SMALL
GASTEIGER

@<TRIPOS>ATOM
      1  N         28.5050    3.0090   21.9680 N.3   242  PHE242     -0.1227
      2  CA        27.3270    2.4770   21.3510 C.3   242  PHE242      0.1736
      3  C         26.1120    2.9380   22.1630 C.2   242  PHE242      0.2595
      4  O         26.1160    2.9400   23.4130 O.2   242  PHE242     -0.2718
      5  CB        27.3630    0.8920   21.3000 C.3   242  PHE242      0.0547
      6  CG        26.0030    0.2720   20.7940 C.ar  242  PHE242     -0.0202
      7  CD1       25.6360    0.3530   19.4230 C.ar  242  PHE242     -0.0042
      8  CD2       25.0950   -0.2210   21.6840 C.ar  242  PHE242     -0.0042
      9  CE1       24.3760   -0.1050   18.9370 C.ar  242  PHE242     -0.0003
     10  CE2       23.7760   -0.6510   21.2150 C.ar  242  PHE242     -0.0003
     11  CZ        23.4670   -0.6230   19.8620 C.ar  242  PHE242     -0.0000
     12  N         25.0500    3.2980   21.4100 N.am  243  PHE243     -0.1962
     13  CA        23.7500    3.4730   21.9780 C.3   243  PHE243      0.1771
     14  C         22.6960    2.9360   20.9870 C.2   243  PHE243      0.2619
     15  O         22.7930    3.1210   19.7150 O.2   243  PHE243     -0.2715
     16  CB        23.5190    4.9450   22.4130 C.3   243  PHE243      0.0574
     17  CG        22.2960    5.1190   23.3470 C.ar  243  PHE243     -0.0200
     18  CD1       22.4000    4.8760   24.7210 C.ar  243  PHE243     -0.0042
     19  CD2       21.0360    5.5220   22.8160 C.ar  243  PHE243     -0.0042
     20  CE1       21.2990    4.9830   25.5530 C.ar  243  PHE243     -0.0003
     21  CE2       19.9280    5.6840   23.6890 C.ar  243  PHE243     -0.0003
     22  CZ        20.0710    5.3920   25.0290 C.ar  243  PHE243     -0.0000
     23  N         21.7010    2.2810   21.5700 N.am  244  GLN244     -0.1977
     24  CA        20.5050    1.7960   20.8210 C.3   244  GLN244      0.1601
     25  C         20.1680    2.8460   19.7500 C.2   244  GLN244      0.2287
     26  O         19.9940    4.0390   20.0960 O.2   244  GLN244     -0.2864
     27  CB        19.2990    1.7560   21.7930 C.3   244  GLN244      0.0394
     28  CG        19.4240    0.9210   22.9830 C.3   244  GLN244      0.0908
     29  CD        19.6360   -0.4160   22.5990 C.2   244  GLN244      0.2608
     30  OE1       19.1170   -0.8130   21.5720 O.2   244  GLN244     -0.2717
     31  NE2       20.4130   -1.1870   23.3960 N.am  244  GLN244     -0.0878
     32  N         23.2170   -7.1170   34.8560 N.3   268  ASP268     -0.1225
     33  CA        23.2940   -6.5650   33.4610 C.3   268  ASP268      0.1805
     34  C         24.5610   -7.0640   32.7200 C.2   268  ASP268      0.2598
     35  O         25.5580   -6.3750   32.6840 O.2   268  ASP268     -0.2718
     36  CB        23.2050   -5.0310   33.5140 C.3   268  ASP268      0.1424
     37  CG        22.8040   -4.3960   32.1570 C.2   268  ASP268      0.3668
     38  OD1       22.6560   -5.1920   31.1870 O.co2 268  ASP268     -0.2456
     39  OD2       22.7300   -3.1120   32.0850 O.co2 268  ASP268     -0.2456
     40  N         24.5510   -8.2920   32.2070 N.am  269  MET269     -0.1965
     41  CA        25.6420   -8.7990   31.4790 C.3   269  MET269      0.1736
     42  C         25.6760   -8.2920   29.9940 C.2   269  MET269      0.2616
     43  O         24.6280   -8.2520   29.3040 O.2   269  MET269     -0.2715
     44  CB        25.7290  -10.3300   31.5810 C.3   269  MET269      0.0427
     45  CG        26.9040  -10.8530   30.8090 C.3   269  MET269      0.0599
     46  SD        28.4010  -10.2660   31.6840 S.3   269  MET269     -0.1393
     47  CE        29.5520  -10.3800   30.3730 C.3   269  MET269      0.0692
     48  N         26.9020   -7.9290   29.5290 N.am  270  TYR270     -0.1960
     49  CA        27.1470   -7.2460   28.2530 C.3   270  TYR270      0.1771
     50  C         26.4580   -5.8750   28.3290 C.2   270  TYR270      0.2620
     51  O         25.7100   -5.5180   27.4590 O.2   270  TYR270     -0.2715
     52  CB        26.6800   -8.0850   27.0060 C.3   270  TYR270      0.0574
     53  CG        27.0820   -9.6000   26.9240 C.ar  270  TYR270     -0.0198
     54  CD1       28.3110  -10.0010   26.3950 C.ar  270  TYR270     -0.0009
     55  CD2       26.2110  -10.6110   27.3540 C.ar  270  TYR270     -0.0009
     56  CE1       28.6330  -11.3350   26.2530 C.ar  270  TYR270      0.0417
     57  CE2       26.5700  -12.0180   27.2950 C.ar  270  TYR270      0.0417
     58  CZ        27.7870  -12.3400   26.7220 C.ar  270  TYR270      0.1957
     59  OH        28.1850  -13.6450   26.6080 O.3   270  TYR270     -0.2866
     60  N         26.6840   -5.0970   29.3830 N.am  271  SER271     -0.1936
     61  CA        25.8320   -3.9580   29.7010 C.3   271  SER271      0.2055
     62  C         25.9670   -2.8190   28.6920 C.2   271  SER271      0.2644
     63  O         25.1720   -1.8760   28.6620 O.2   271  SER271     -0.2714
     64  CB        26.2620   -3.3900   31.0480 C.3   271  SER271      0.2130
     65  OG        27.6580   -2.9380   30.9980 O.3   271  SER271     -0.2179
     66  N         27.1140   -2.7710   28.0330 N.am  272  GLY272     -0.1939
     67  CA        27.4290   -1.5610   27.2600 C.3   272  GLY272      0.2014
     68  C         27.5040   -0.4500   28.2700 C.2   272  GLY272      0.2638
     69  O         28.0300   -0.6420   29.3930 O.2   272  GLY272     -0.2714
     70  N         26.9510    0.6940   27.8620 N.am  273  VAL273     -0.1977
     71  CA        26.8570    1.9010   28.6530 C.3   273  VAL273      0.1596
     72  C         25.8190    1.9010   29.7510 C.2   273  VAL273      0.2287
     73  O         25.5740    2.9310   30.3490 O.2   273  VAL273     -0.2864
     74  CB        26.6620    3.1400   27.7010 C.3   273  VAL273      0.0276
     75  CG1       27.7670    3.0630   26.5110 C.3   273  VAL273      0.0022
     76  CG2       25.1440    3.2130   27.1330 C.3   273  VAL273      0.0022
     77  N         22.4360    0.8900   29.6100 N.3   275  THR275     -0.1203
     78  CA        21.0060    1.0890   29.2560 C.3   275  THR275      0.1994
     79  C         20.0060    0.3990   30.1960 C.2   275  THR275      0.2617
     80  O         19.1870    1.1000   30.7480 O.2   275  THR275     -0.2717
     81  CB        20.6900    0.5730   27.8060 C.3   275  THR275      0.1784
     82  OG1       21.6970    1.0400   26.9850 O.3   275  THR275     -0.2211
     83  CG2       19.2870    1.1140   27.2080 C.3   275  THR275      0.0376
     84  N         20.0480   -0.9270   30.3030 N.am  276  PHE276     -0.1975
     85  CA        19.0760   -1.7360   31.0780 C.3   276  PHE276      0.1639
     86  C         19.4510   -1.6890   32.6200 C.2   276  PHE276      0.2290
     87  O         18.5990   -1.4790   33.4680 O.2   276  PHE276     -0.2864
     88  CB        19.2050   -3.1900   30.6420 C.3   276  PHE276      0.0560
     89  CG        18.9380   -3.4120   29.1970 C.ar  276  PHE276     -0.0200
     90  CD1       17.9010   -2.7380   28.5640 C.ar  276  PHE276     -0.0042
     91  CD2       19.6740   -4.3260   28.4910 C.ar  276  PHE276     -0.0042
     92  CE1       17.6820   -2.9450   27.1980 C.ar  276  PHE276     -0.0003
     93  CE2       19.4570   -4.5370   27.1360 C.ar  276  PHE276     -0.0003
     94  CZ        18.4880   -3.8120   26.5040 C.ar  276  PHE276     -0.0000
     95  N         30.9190   -5.5970   31.1710 N.3   291  ASP291     -0.1225
     96  CA        31.1320   -5.4670   29.7410 C.3   291  ASP291      0.1805
     97  C         32.6460   -5.5060   29.5690 C.2   291  ASP291      0.2598
     98  O         33.3720   -5.0180   30.4760 O.2   291  ASP291     -0.2718
     99  CB        30.5730   -4.1910   29.1710 C.3   291  ASP291      0.1424
    100  CG        30.3970   -4.2600   27.6370 C.2   291  ASP291      0.3668
    101  OD1       31.3910   -4.1230   26.8360 O.co2 291  ASP291     -0.2456
    102  OD2       29.2370   -4.4160   27.2200 O.co2 291  ASP291     -0.2456
    103  N         33.1150   -6.1420   28.4930 N.am  292  SER292     -0.1938
    104  CA        34.5430   -6.1960   28.2410 C.3   292  SER292      0.2055
    105  C         35.0550   -4.9000   27.6130 C.2   292  SER292      0.2643
    106  O         36.2750   -4.6920   27.5400 O.2   292  SER292     -0.2714
    107  CB        34.8960   -7.3440   27.3140 C.3   292  SER292      0.2130
    108  OG        34.3110   -7.0700   26.0570 O.3   292  SER292     -0.2179
    109  N         34.1600   -4.0130   27.1730 N.am  293  ASN293     -0.1971
    110  CA        34.6550   -2.8380   26.5620 C.3   293  ASN293      0.1688
    111  C         34.9190   -1.7650   27.6510 C.2   293  ASN293      0.2292
    112  O         34.0260   -1.3540   28.4040 O.2   293  ASN293     -0.2864
    113  CB        33.7300   -2.3120   25.4750 C.3   293  ASN293      0.1181
    114  CG        34.3330   -1.1510   24.7430 C.2   293  ASN293      0.2629
    115  OD1       34.2920    0.0270   25.1630 O.2   293  ASN293     -0.2716
    116  ND2       34.9500   -1.4680   23.6180 N.am  293  ASN293     -0.0877
    117  N         32.9670    1.6720   27.2040 N.3   296  ALA296     -0.1245
    118  CA        31.5500    1.4830   27.5750 C.3   296  ALA296      0.1562
    119  C         31.3390    1.5940   29.0820 C.2   296  ALA296      0.2260
    120  O         30.3610    2.1660   29.5220 O.2   296  ALA296     -0.2867
    121  CB        31.0550    0.0660   27.1390 C.3   296  ALA296      0.0290
    122  N         34.6830   -6.8370   32.5380 N.3   316  ALA316     -0.1231
    123  CA        34.8950   -8.2700   32.6260 C.3   316  ALA316      0.1694
    124  C         34.5030   -8.9840   31.3240 C.2   316  ALA316      0.2593
    125  O         33.4980   -8.6130   30.6780 O.2   316  ALA316     -0.2718
    126  CB        34.0650   -8.8950   33.8190 C.3   316  ALA316      0.0304
    127  N         35.2510  -10.0240   30.9890 N.am  317  SER317     -0.1938
    128  CA        34.9150  -10.9380   29.9200 C.3   317  SER317      0.2055
    129  C         33.8400  -11.9800   30.2780 C.2   317  SER317      0.2643
    130  O         33.7030  -12.3530   31.4420 O.2   317  SER317     -0.2714
    131  CB        36.1390  -11.6860   29.4980 C.3   317  SER317      0.2130
    132  OG        35.7250  -12.6930   28.6190 O.3   317  SER317     -0.2179
    133  N         33.0620  -12.4280   29.2780 N.am  318  ASP318     -0.1957
    134  CA        32.0860  -13.4940   29.5050 C.3   318  ASP318      0.1840
    135  C         32.7410  -14.9000   29.6760 C.2   318  ASP318      0.2621
    136  O         32.0910  -15.8510   30.0810 O.2   318  ASP318     -0.2715
    137  CB        30.9950  -13.5130   28.4290 C.3   318  ASP318      0.1450
    138  CG        31.4870  -13.9630   27.0820 C.2   318  ASP318      0.3671
    139  OD1       32.7230  -13.9970   26.7830 O.co2 318  ASP318     -0.2456
    140  OD2       30.5990  -14.2610   26.2510 O.co2 318  ASP318     -0.2456
    141  N         34.0160  -15.0170   29.3440 N.am  319  ARG319     -0.1977
    142  CA        34.7290  -16.2530   29.5440 C.3   319  ARG319      0.1597
    143  C         34.9980  -16.3990   31.0360 C.2   319  ARG319      0.2287
    144  O         35.3970  -17.4780   31.4790 O.2   319  ARG319     -0.2864
    145  CB        36.0570  -16.2720   28.7980 C.3   319  ARG319      0.0334
    146  CG        35.9880  -16.2970   27.2770 C.3   319  ARG319      0.0492
    147  CD        37.4070  -15.9870   26.7430 C.3   319  ARG319      0.2205
    148  NE        38.3760  -17.0170   27.1700 N.pl3 319  ARG319     -0.0865
    149  CZ        39.4120  -16.8350   28.0100 C.cat 319  ARG319      0.5346
    150  NH1       39.6770  -15.6400   28.5370 N.pl3 319  ARG319      0.1354
    151  NH2       40.2240  -17.8520   28.3110 N.pl3 319  ARG319      0.1354
    152  N         22.9470   -9.6940   26.6970 N.3   332  ASP332     -0.1225
    153  CA        22.7390   -9.0020   25.4290 C.3   332  ASP332      0.1790
    154  C         24.0310   -9.0640   24.7150 C.2   332  ASP332      0.2440
    155  O         24.6900   -8.0600   24.6010 O.2   332  ASP332     -0.2733
    156  CB        22.2770   -7.5600   25.7050 C.3   332  ASP332      0.1423
    157  CG        21.9070   -6.7610   24.4390 C.2   332  ASP332      0.3668
    158  OD1       21.8300   -7.3150   23.2900 O.co2 332  ASP332     -0.2456
    159  OD2       21.7280   -5.5340   24.6260 O.co2 332  ASP332     -0.2456
    160  N         24.3640  -10.2600   24.2250 N.am  333  PRO333     -0.2718
    161  CA        25.6020  -10.6760   23.6540 C.3   333  PRO333      0.1520
    162  C         25.8810   -9.9960   22.3020 C.2   333  PRO333      0.2440
    163  O         24.9720   -9.5400   21.6700 O.2   333  PRO333     -0.2731
    164  CB        25.4280  -12.1920   23.4990 C.3   333  PRO333      0.0310
    165  CG        23.9150  -12.3910   23.5260 C.3   333  PRO333      0.0237
    166  CD        23.4560  -11.3760   24.4590 C.3   333  PRO333      0.0939
    167  N         27.1570   -9.9160   21.9120 N.am  334  PRO334     -0.2727
    168  CA        27.6470   -9.5610   20.5710 C.3   334  PRO334      0.1402
    169  C         27.1960  -10.6720   19.5580 C.2   334  PRO334      0.2269
    170  O         26.4900  -11.6620   19.9590 O.2   334  PRO334     -0.2865
    171  CB        29.1560   -9.6270   20.7380 C.3   334  PRO334      0.0296
    172  CG        29.3870  -10.7050   21.8520 C.3   334  PRO334      0.0237
    173  CD        28.1640  -10.5960   22.7480 C.3   334  PRO334      0.0939
@<TRIPOS>BOND
     1     9     7   ar
     2     9    11   ar
     3     7     6   ar
     4   169   170    2
     5   169   168    1
     6    15    14    2
     7    25    26    2
     8    25    24    1
     9    11    10   ar
    10   168   171    1
    11   168   167    1
    12   171   172    1
    13     6     5    1
    14     6     8   ar
    15    24    23    1
    16    24    27    1
    17    14    23   am
    18    14    13    1
    19    10     8   ar
    20     5     2    1
    21     2     1    1
    22     2     3    1
    23    12    13    1
    24    12     3   am
    25    30    29    2
    26   163   162    2
    27    27    28    1
    28   172   173    1
    29   167   162   am
    30   167   173    1
    31    13    16    1
    32     3     4    2
    33   162   161    1
    34    16    17    1
    35    29    28    1
    36    29    31   am
    37    19    17   ar
    38    19    21   ar
    39   158   157   ar
    40    17    18   ar
    41   164   165    1
    42   164   161    1
    43   165   166    1
    44   116   114   am
    45   161   160    1
    46    21    22   ar
    47   160   166    1
    48   160   154   am
    49   157   159   ar
    50   157   156    1
    51   155   154    2
    52   154   153    1
    53    18    20   ar
    54   114   115    2
    55   114   113    1
    56    22    20   ar
    57   153   156    1
    58   153   152    1
    59   113   110    1
    60   108   107    1
    61   140   138   ar
    62    56    54   ar
    63    56    58   ar
    64    54    53   ar
    65    94    93   ar
    66    94    92   ar
    67    75    74    1
    68   110   109    1
    69   110   111    1
    70    59    58    1
    71    58    57   ar
    72   147   148    1
    73   147   146    1
    74   139   138   ar
    75   101   100   ar
    76    53    52    1
    77    53    55   ar
    78    82    81    1
    79    52    49    1
    80   138   137    1
    81    76    74    1
    82    93    91   ar
    83   121   118    1
    84   148   149    2
    85   109   105   am
    86    92    90   ar
    87   117   118    1
    88    83    81    1
    89   102   100   ar
    90    67    66    1
    91    67    68    1
    92   146   145    1
    93    57    55   ar
    94   107   104    1
    95    51    50    2
    96   106   105    2
    97   118   119    1
    98   105   104    1
    99   100    99    1
   100   111   112    2
   101    74    71    1
   102    81    78    1
   103    70    68   am
   104    70    71    1
   105   149   151    1
   106   149   150    1
   107    66    62   am
   108   104   103    1
   109    49    50    1
   110    49    48    1
   111    68    69    2
   112    50    60   am
   113   137   134    1
   114    91    89   ar
   115   103    97   am
   116    90    89   ar
   117   132   131    1
   118    71    72    1
   119    63    62    2
   120    62    61    1
   121   145   142    1
   122   119   120    2
   123    99    96    1
   124    89    88    1
   125    78    77    1
   126    78    79    1
   127   133   134    1
   128   133   129   am
   129    43    42    2
   130   141   142    1
   131   141   135   am
   132    60    61    1
   133   131   128    1
   134   134   135    1
   135    48    42   am
   136   142   143    1
   137    97    96    1
   138    97    98    2
   139   135   136    2
   140    61    64    1
   141    96    95    1
   142    72    73    2
   143   128   129    1
   144   128   127    1
   145    42    41    1
   146    79    84   am
   147    79    80    2
   148   129   130    2
   149    84    85    1
   150    47    46    1
   151    88    85    1
   152   125   124    2
   153    45    44    1
   154    45    46    1
   155   127   124   am
   156    65    64    1
   157   143   144    2
   158    85    86    1
   159    38    37   ar
   160   124   123    1
   161    41    44    1
   162    41    40    1
   163    39    37   ar
   164    37    36    1
   165    40    34   am
   166   122   123    1
   167    86    87    2
   168   123   126    1
   169    35    34    2
   170    34    33    1
   171    33    36    1
   172    33    32    1
