@<TRIPOS>MOLECULE
tmp/2vs4A00.pdb
 169 165 0 0 0
SMALL
GASTEIGER

@<TRIPOS>ATOM
      1  N          4.2690    8.9330   37.9960 N.3    54  PHE54      -0.1227
      2  CA         3.4920   10.1620   37.8780 C.3    54  PHE54       0.1736
      3  C          4.3520   11.3630   38.2570 C.2    54  PHE54       0.2595
      4  O          5.2060   11.2800   39.1360 O.2    54  PHE54      -0.2718
      5  CB         2.2900   10.1590   38.8260 C.3    54  PHE54       0.0547
      6  CG         1.2580    9.1120   38.5200 C.ar   54  PHE54      -0.0202
      7  CD1        1.5540    7.7590   38.6450 C.ar   54  PHE54      -0.0042
      8  CD2       -0.0250    9.4850   38.1320 C.ar   54  PHE54      -0.0042
      9  CE1        0.5830    6.7940   38.3860 C.ar   54  PHE54      -0.0003
     10  CE2       -1.0040    8.5270   37.8720 C.ar   54  PHE54      -0.0003
     11  CZ        -0.6990    7.1770   38.0000 C.ar   54  PHE54      -0.0000
     12  N          4.0980   12.4810   37.5930 N.am   55  ALA55      -0.1966
     13  CA         4.8000   13.7230   37.8860 C.3    55  ALA55       0.1728
     14  C          3.7790   14.8170   37.6100 C.2    55  ALA55       0.2616
     15  O          3.4560   15.1000   36.4610 O.2    55  ALA55      -0.2715
     16  CB         6.0270   13.8830   36.9900 C.3    55  ALA55       0.0334
     17  N          3.2460   15.3910   38.6830 N.am   56  VAL56      -0.1977
     18  CA         2.2390   16.4450   38.5970 C.3    56  VAL56       0.1596
     19  C          2.7860   17.7090   39.2490 C.2    56  VAL56       0.2287
     20  O          3.3430   17.6570   40.3370 O.2    56  VAL56      -0.2864
     21  CB         0.9380   16.0170   39.3170 C.3    56  VAL56       0.0276
     22  CG1       -0.1170   17.1200   39.2190 C.3    56  VAL56       0.0022
     23  CG2        0.4170   14.7330   38.7010 C.3    56  VAL56       0.0022
     24  N          6.8520   18.6100   40.4100 N.3    59  TYR59      -0.1241
     25  CA         7.5520   17.3360   40.5380 C.3    59  TYR59       0.1605
     26  C          8.1510   17.0050   39.1770 C.2    59  TYR59       0.2264
     27  O          9.1390   16.2740   39.0840 O.2    59  TYR59      -0.2867
     28  CB         6.5930   16.2210   40.9490 C.3    59  TYR59       0.0534
     29  CG         6.3210   16.1520   42.4320 C.ar   59  TYR59      -0.0201
     30  CD1        6.7360   15.0500   43.1830 C.ar   59  TYR59      -0.0009
     31  CD2        5.6400   17.1780   43.0860 C.ar   59  TYR59      -0.0009
     32  CE1        6.4770   14.9710   44.5480 C.ar   59  TYR59       0.0417
     33  CE2        5.3810   17.1100   44.4470 C.ar   59  TYR59       0.0417
     34  CZ         5.7980   16.0040   45.1760 C.ar   59  TYR59       0.1957
     35  OH         5.5400   15.9350   46.5270 O.3    59  TYR59      -0.2866
     36  N         -2.1910   17.7330   47.1170 N.3   115  TRP115     -0.1241
     37  CA        -1.1070   16.8020   46.8190 C.3   115  TRP115      0.1605
     38  C         -1.4430   15.4290   47.3840 C.2   115  TRP115      0.2264
     39  O         -1.0190   14.4090   46.8430 O.2   115  TRP115     -0.2867
     40  CB         0.2330   17.2840   47.3970 C.3   115  TRP115      0.0550
     41  CG         0.2910   17.3880   48.8950 C.ar  115  TRP115      0.0003
     42  CD1        0.1210   18.5170   49.6460 C.ar  115  TRP115      0.0946
     43  CD2        0.5740   16.3300   49.8190 C.ar  115  TRP115      0.0152
     44  NE1        0.2870   18.2300   50.9790 N.ar  115  TRP115     -0.2442
     45  CE2        0.5630   16.8940   51.1140 C.ar  115  TRP115      0.0810
     46  CE3        0.8360   14.9600   49.6800 C.ar  115  TRP115      0.0012
     47  CZ2        0.8050   16.1330   52.2650 C.ar  115  TRP115      0.0191
     48  CZ3        1.0780   14.2040   50.8280 C.ar  115  TRP115      0.0001
     49  CH2        1.0610   14.7940   52.1010 C.ar  115  TRP115      0.0015
     50  N         -3.3380   13.7940   44.7820 N.3   118  ILE118     -0.1231
     51  CA        -2.5130   13.4860   43.6220 C.3   118  ILE118      0.1692
     52  C         -1.8540   12.1380   43.9250 C.2   118  ILE118      0.2592
     53  O         -1.8810   11.2110   43.1200 O.2   118  ILE118     -0.2718
     54  CB        -1.3950   14.5290   43.4220 C.3   118  ILE118      0.0266
     55  CG1       -1.9950   15.8810   43.0300 C.3   118  ILE118      0.0019
     56  CG2       -0.4260   14.0460   42.3600 C.3   118  ILE118      0.0020
     57  CD1       -0.9630   16.9660   42.8600 C.3   118  ILE118      0.0001
     58  N         -1.2660   12.0430   45.1100 N.am  119  SER119     -0.1952
     59  CA        -0.5930   10.8240   45.5320 C.3   119  SER119      0.1924
     60  C         -1.5470    9.6320   45.5960 C.2   119  SER119      0.2314
     61  O         -1.2060    8.5380   45.1550 O.2   119  SER119     -0.2863
     62  CB         0.0580   11.0480   46.8970 C.3   119  SER119      0.2116
     63  OG         0.6610    9.8680   47.3740 O.3   119  SER119     -0.2180
     64  N         -3.3760    8.0300   42.1620 N.3   122  ARG122     -0.1245
     65  CA        -2.5530    7.1390   41.3540 C.3   122  ARG122      0.1563
     66  C         -3.1390    5.7270   41.3460 C.2   122  ARG122      0.2260
     67  O         -3.1520    5.0550   40.3150 O.2   122  ARG122     -0.2867
     68  CB        -1.1220    7.0880   41.9020 C.3   122  ARG122      0.0307
     69  CG        -0.3390    8.3870   41.7620 C.3   122  ARG122      0.0489
     70  CD         1.1150    8.1920   42.1480 C.3   122  ARG122      0.2205
     71  NE         1.3010    8.0160   43.5850 N.pl3 122  ARG122     -0.0865
     72  CZ         2.4530    7.6550   44.1390 C.cat 122  ARG122      0.5346
     73  NH1        3.5100    7.4260   43.3730 N.pl3 122  ARG122      0.1354
     74  NH2        2.5520    7.5370   45.4560 N.pl3 122  ARG122      0.1354
     75  N          7.3220    6.0090   42.7610 N.3   145  ASP145     -0.1225
     76  CA         7.2750    7.4420   43.0630 C.3   145  ASP145      0.1805
     77  C          8.3110    8.0500   42.1110 C.2   145  ASP145      0.2598
     78  O          9.2180    7.3540   41.6580 O.2   145  ASP145     -0.2718
     79  CB         7.7300    7.7100   44.5020 C.3   145  ASP145      0.1424
     80  CG         6.6060    7.6360   45.5120 C.2   145  ASP145      0.3668
     81  OD1        5.4980    7.1820   45.1680 O.co2 145  ASP145     -0.2456
     82  OD2        6.8450    8.0360   46.6700 O.co2 145  ASP145     -0.2456
     83  N          8.2000    9.3430   41.8240 N.am  146  VAL146     -0.1966
     84  CA         9.1500    9.9810   40.9220 C.3   146  VAL146      0.1727
     85  C         10.3160   10.6410   41.6750 C.2   146  VAL146      0.2616
     86  O         11.3750   10.8930   41.1000 O.2   146  VAL146     -0.2715
     87  CB         8.4420   11.0530   40.0420 C.3   146  VAL146      0.0290
     88  CG1        7.9910   12.2240   40.9030 C.3   146  VAL146      0.0023
     89  CG2        9.3710   11.5200   38.9450 C.3   146  VAL146      0.0023
     90  N         10.1190   10.9090   42.9610 N.am  147  ASP147     -0.1971
     91  CA        11.1490   11.5610   43.7740 C.3   147  ASP147      0.1709
     92  C         12.2470   10.6280   44.2850 C.2   147  ASP147      0.2293
     93  O         12.5400   10.5890   45.4810 O.2   147  ASP147     -0.2864
     94  CB        10.4980   12.3020   44.9520 C.3   147  ASP147      0.1436
     95  CG         9.7920   11.3690   45.9220 C.2   147  ASP147      0.3671
     96  OD1        9.2100   10.3540   45.4670 O.co2 147  ASP147     -0.2456
     97  OD2        9.8000   11.6620   47.1370 O.co2 147  ASP147     -0.2456
     98  N          6.8590    0.3530   51.8660 N.3   200  HIS200     -0.1241
     99  CA         6.9650    1.6900   51.2950 C.3   200  HIS200      0.1621
    100  C          6.0930    1.7650   50.0380 C.2   200  HIS200      0.2264
    101  O          6.1510    0.8790   49.1860 O.2   200  HIS200     -0.2867
    102  CB         8.4300    1.9650   50.9420 C.3   200  HIS200      0.0745
    103  CG         8.7420    3.4110   50.7400 C.ar  200  HIS200      0.0817
    104  ND1       10.0030    3.8560   50.4120 N.ar  200  HIS200     -0.2268
    105  CD2        7.9670    4.5160   50.8420 C.ar  200  HIS200      0.1154
    106  CE1        9.9930    5.1740   50.3230 C.ar  200  HIS200      0.1986
    107  NE2        8.7690    5.5990   50.5780 N.ar  200  HIS200     -0.2212
    108  N         -0.8230    8.0530   56.4540 N.3   234  TRP234     -0.1241
    109  CA         0.1230    8.0960   55.3500 C.3   234  TRP234      0.1605
    110  C         -0.5050    7.7720   54.0090 C.2   234  TRP234      0.2264
    111  O          0.0800    7.1050   53.1510 O.2   234  TRP234     -0.2867
    112  CB         1.3300    7.2050   55.6330 C.3   234  TRP234      0.0550
    113  CG         2.1640    7.8070   56.7290 C.ar  234  TRP234      0.0003
    114  CD1        2.2130    7.4080   58.0310 C.ar  234  TRP234      0.0946
    115  CD2        2.9890    8.9810   56.6370 C.ar  234  TRP234      0.0152
    116  NE1        3.0090    8.2570   58.7580 N.ar  234  TRP234     -0.2442
    117  CE2        3.5010    9.2320   57.9290 C.ar  234  TRP234      0.0810
    118  CE3        3.3430    9.8460   55.5880 C.ar  234  TRP234      0.0012
    119  CZ2        4.3560   10.3150   58.2050 C.ar  234  TRP234      0.0191
    120  CZ3        4.1940   10.9250   55.8630 C.ar  234  TRP234      0.0001
    121  CH2        4.6880   11.1440   57.1640 C.ar  234  TRP234      0.0015
    122  N         -2.3200    6.6630   50.7130 N.3   236  GLU236     -0.1245
    123  CA        -2.3970    5.3470   50.0840 C.3   236  GLU236      0.1567
    124  C         -1.3760    4.3460   50.6230 C.2   236  GLU236      0.2260
    125  O         -1.5390    3.1320   50.4710 O.2   236  GLU236     -0.2867
    126  CB        -2.3120    5.4590   48.5480 C.3   236  GLU236      0.0388
    127  CG        -0.9220    5.5270   47.9360 C.3   236  GLU236      0.1160
    128  CD        -0.2510    6.8820   48.0750 C.2   236  GLU236      0.3649
    129  OE1       -0.9140    7.8650   48.4720 O.co2 236  GLU236     -0.2457
    130  OE2        0.9510    6.9640   47.7630 O.co2 236  GLU236     -0.2457
    131  N         13.6750   15.7220   50.3350 N.3   279  LYS279     -0.1245
    132  CA        12.3390   16.3090   50.2830 C.3   279  LYS279      0.1561
    133  C         12.4650   17.8200   50.0850 C.2   279  LYS279      0.2260
    134  O         13.3620   18.4440   50.6380 O.2   279  LYS279     -0.2867
    135  CB        11.5770   16.0130   51.5790 C.3   279  LYS279      0.0271
    136  CG        11.5040   14.5200   51.9500 C.3   279  LYS279      0.0035
    137  CD        10.8230   13.7070   50.8670 C.3   279  LYS279      0.0206
    138  CE        10.7350   12.2380   51.2570 C.3   279  LYS279      0.1093
    139  NZ        10.0500   11.4210   50.2200 N.3   279  LYS279     -0.1314
    140  N          9.3110   19.8650   49.8910 N.3   281  TYR281     -0.1241
    141  CA         7.8850   20.1700   49.9460 C.3   281  TYR281      0.1605
    142  C          7.5360   21.6410   49.8060 C.2   281  TYR281      0.2264
    143  O          6.5060   21.9850   49.2300 O.2   281  TYR281     -0.2867
    144  CB         7.3000   19.6660   51.2600 C.3   281  TYR281      0.0534
    145  CG         7.3840   18.1670   51.4640 C.ar  281  TYR281     -0.0201
    146  CD1        7.3260   17.6270   52.7440 C.ar  281  TYR281     -0.0009
    147  CD2        7.4970   17.2900   50.3830 C.ar  281  TYR281     -0.0009
    148  CE1        7.3760   16.2510   52.9520 C.ar  281  TYR281      0.0417
    149  CE2        7.5500   15.9070   50.5810 C.ar  281  TYR281      0.0417
    150  CZ         7.4880   15.3980   51.8700 C.ar  281  TYR281      0.1957
    151  OH         7.5370   14.0370   52.1010 O.3   281  TYR281     -0.2866
    152  N          7.7840   21.9410   45.7800 N.3   284  VAL284     -0.1231
    153  CA         6.9930   21.0090   44.9850 C.3   284  VAL284      0.1692
    154  C          5.5270   20.8100   45.3920 C.2   284  VAL284      0.2591
    155  O          4.7400   20.3120   44.5940 O.2   284  VAL284     -0.2718
    156  CB         7.6750   19.6230   44.9080 C.3   284  VAL284      0.0266
    157  CG1        9.0940   19.7710   44.3980 C.3   284  VAL284      0.0020
    158  CG2        7.6550   18.9540   46.2640 C.3   284  VAL284      0.0020
    159  N          5.1590   21.1830   46.6170 N.am  285  ARG285     -0.1980
    160  CA         3.7710   21.0410   47.0650 C.3   285  ARG285      0.1597
    161  C          3.1260   22.4110   47.2750 C.2   285  ARG285      0.2287
    162  O          3.7790   23.3450   47.7380 O.2   285  ARG285     -0.2864
    163  CB         3.6980   20.2330   48.3570 C.3   285  ARG285      0.0334
    164  CG         4.0330   18.7580   48.1810 C.3   285  ARG285      0.0492
    165  CD         4.0110   18.0360   49.5170 C.3   285  ARG285      0.2205
    166  NE         4.2960   16.6100   49.3790 N.pl3 285  ARG285     -0.0865
    167  CZ         4.3430   15.7590   50.3980 C.cat 285  ARG285      0.5346
    168  NH1        4.1260   16.1880   51.6350 N.pl3 285  ARG285      0.1354
    169  NH2        4.6050   14.4750   50.1830 N.pl3 285  ARG285      0.1354
@<TRIPOS>BOND
     1    15    14    2
     2    16    13    1
     3    12    13    1
     4    12     3   am
     5    14    13    1
     6    14    17   am
     7    10    11   ar
     8    10     8   ar
     9     2     1    1
    10     2     3    1
    11     2     5    1
    12    11     9   ar
    13     8     6   ar
    14     3     4    2
    15     9     7   ar
    16     6     7   ar
    17     6     5    1
    18    18    17    1
    19    18    19    1
    20    18    21    1
    21    23    21    1
    22    89    87    1
    23    27    26    2
    24    26    25    1
    25    22    21    1
    26    19    20    2
    27    87    88    1
    28    87    84    1
    29    67    66    2
    30    24    25    1
    31    25    28    1
    32    84    85    1
    33    84    83    1
    34    28    29    1
    35    86    85    2
    36    66    65    1
    37    65    68    1
    38    65    64    1
    39    78    77    2
    40    85    90   am
    41    69    68    1
    42    69    70    1
    43    83    77   am
    44    77    76    1
    45    70    71    1
    46    56    54    1
    47    29    31   ar
    48    29    30   ar
    49    75    76    1
    50    57    55    1
    51    90    91    1
    52    55    54    1
    53    76    79    1
    54    31    33   ar
    55    53    52    2
    56    30    32   ar
    57    73    72    1
    58    54    51    1
    59    71    72    2
    60    51    52    1
    61    51    50    1
    62    91    92    1
    63    91    94    1
    64    52    58   am
    65    72    74    1
    66    92    93    2
    67   157   156    1
    68    33    34   ar
    69    79    80    1
    70    32    34   ar
    71   155   154    2
    72   156   153    1
    73   156   158    1
    74    94    95    1
    75   153   154    1
    76   153   152    1
    77    58    59    1
    78    61    60    2
    79    81    80   ar
    80    34    35    1
    81   154   159   am
    82    96    95   ar
    83    80    82   ar
    84    59    60    1
    85    59    62    1
    86    95    97   ar
    87   159   160    1
    88    37    36    1
    89    37    38    1
    90    37    40    1
    91    39    38    2
    92    62    63    1
    93   160   161    1
    94   160   163    1
    95   161   162    2
    96    40    41    1
    97   130   128   ar
    98   127   128    1
    99   127   126    1
   100   128   129   ar
   101   164   163    1
   102   164   165    1
   103   126   123    1
   104    41    42   ar
   105    41    43   ar
   106   101   100    2
   107   143   142    2
   108   166   165    1
   109   166   167    2
   110    42    44   ar
   111    46    43   ar
   112    46    48   ar
   113   142   141    1
   114    43    45   ar
   115   140   141    1
   116   141   144    1
   117   100    99    1
   118   123   124    1
   119   123   122    1
   120   133   132    1
   121   133   134    2
   122   169   167    1
   123   139   138    1
   124   132   131    1
   125   132   135    1
   126   106   104   ar
   127   106   107   ar
   128   147   149   ar
   129   147   145   ar
   130   167   168    1
   131   104   103   ar
   132   125   124    2
   133   107   105   ar
   134   149   150   ar
   135   103   105   ar
   136   103   102    1
   137    48    49   ar
   138   137   138    1
   139   137   136    1
   140   102    99    1
   141    44    45   ar
   142    45    47   ar
   143   144   145    1
   144    99    98    1
   145   145   146   ar
   146   135   136    1
   147   150   151    1
   148   150   148   ar
   149    49    47   ar
   150   146   148   ar
   151   111   110    2
   152   110   109    1
   153   109   112    1
   154   109   108    1
   155   118   120   ar
   156   118   115   ar
   157   112   113    1
   158   120   121   ar
   159   115   113   ar
   160   115   117   ar
   161   113   114   ar
   162   121   119   ar
   163   117   119   ar
   164   117   116   ar
   165   114   116   ar
