@<TRIPOS>MOLECULE
tmp/2vs4A01.pdb
 132 132 0 0 0
SMALL
GASTEIGER

@<TRIPOS>ATOM
      1  N         10.2990   -0.2970   53.7700 N.3   167  GLN167     -0.1245
      2  CA        10.6590    1.0530   54.0470 C.3   167  GLN167      0.1566
      3  C         11.9740    1.1980   54.7730 C.2   167  GLN167      0.2260
      4  O         12.1230    0.6520   55.6690 O.2   167  GLN167     -0.2867
      5  CB         9.5840    1.7710   54.7390 C.3   167  GLN167      0.0367
      6  CG         9.3780    3.2030   54.2980 C.3   167  GLN167      0.0905
      7  CD        10.1220    4.2120   55.2170 C.2   167  GLN167      0.2608
      8  OE1       10.9670    3.9120   55.7640 O.2   167  GLN167     -0.2717
      9  NE2        9.5600    5.3370   55.3570 N.am  167  GLN167     -0.0878
     10  N         13.4910    3.2110   56.7410 N.3   169  TRP169     -0.1227
     11  CA        13.5940    3.6000   58.1450 C.3   169  TRP169      0.1737
     12  C         13.0560    2.6110   59.1690 C.2   169  TRP169      0.2595
     13  O         13.3690    2.7290   60.3540 O.2   169  TRP169     -0.2718
     14  CB        12.9050    4.9520   58.3890 C.3   169  TRP169      0.0564
     15  CG        13.5530    6.1190   57.7140 C.ar  169  TRP169      0.0003
     16  CD1       13.4330    6.4800   56.4040 C.ar  169  TRP169      0.0946
     17  CD2       14.4180    7.0850   58.3180 C.ar  169  TRP169      0.0152
     18  NE1       14.1660    7.6150   56.1530 N.ar  169  TRP169     -0.2442
     19  CE2       14.7830    8.0080   57.3130 C.ar  169  TRP169      0.0810
     20  CE3       14.9220    7.2620   59.6140 C.ar  169  TRP169      0.0012
     21  CZ2       15.6300    9.0960   57.5630 C.ar  169  TRP169      0.0191
     22  CZ3       15.7630    8.3400   59.8610 C.ar  169  TRP169      0.0001
     23  CH2       16.1080    9.2440   58.8390 C.ar  169  TRP169      0.0015
     24  N         12.2750    1.6270   58.7330 N.am  170  TRP170     -0.1976
     25  CA        11.6730    0.6930   59.6880 C.3   170  TRP170      0.1640
     26  C         11.8730   -0.8010   59.4800 C.2   170  TRP170      0.2290
     27  O         11.2330   -1.6030   60.1620 O.2   170  TRP170     -0.2864
     28  CB        10.1680    0.9450   59.7590 C.3   170  TRP170      0.0576
     29  CG         9.8020    2.3910   59.8830 C.ar  170  TRP170      0.0006
     30  CD1        9.6390    3.2920   58.8650 C.ar  170  TRP170      0.0946
     31  CD2        9.5830    3.1150   61.1000 C.ar  170  TRP170      0.0152
     32  NE1        9.3290    4.5350   59.3760 N.ar  170  TRP170     -0.2442
     33  CE2        9.2890    4.4530   60.7440 C.ar  170  TRP170      0.0810
     34  CE3        9.6060    2.7650   62.4570 C.ar  170  TRP170      0.0012
     35  CZ2        9.0190    5.4410   61.6980 C.ar  170  TRP170      0.0191
     36  CZ3        9.3360    3.7520   63.4080 C.ar  170  TRP170      0.0001
     37  CH2        9.0460    5.0740   63.0190 C.ar  170  TRP170      0.0015
     38  N          4.4470    2.8810   61.5800 N.3   179  THR179     -0.1218
     39  CA         3.4830    3.9660   61.4530 C.3   179  THR179      0.1862
     40  C          2.2430    3.5880   60.6350 C.2   179  THR179      0.2287
     41  O          1.8850    4.2690   59.6720 O.2   179  THR179     -0.2866
     42  CB         4.1190    5.2460   60.8440 C.3   179  THR179      0.1770
     43  OG1        4.5320    4.9970   59.4960 O.3   179  THR179     -0.2211
     44  CG2        5.3190    5.6860   61.6670 C.3   179  THR179      0.0375
     45  N          6.7050   -3.0140   57.4590 N.3   198  TYR198     -0.1241
     46  CA         6.1350   -1.7410   57.0470 C.3   198  TYR198      0.1605
     47  C          6.6110   -1.5000   55.6120 C.2   198  TYR198      0.2264
     48  O          7.8000   -1.2600   55.3690 O.2   198  TYR198     -0.2867
     49  CB         6.5770   -0.5840   57.9440 C.3   198  TYR198      0.0534
     50  CG         5.8250    0.6830   57.5930 C.ar  198  TYR198     -0.0201
     51  CD1        6.3790    1.6440   56.7440 C.ar  198  TYR198     -0.0009
     52  CD2        4.5170    0.8720   58.0360 C.ar  198  TYR198     -0.0009
     53  CE1        5.6400    2.7650   56.3400 C.ar  198  TYR198      0.0417
     54  CE2        3.7690    1.9860   57.6390 C.ar  198  TYR198      0.0417
     55  CZ         4.3320    2.9240   56.7950 C.ar  198  TYR198      0.1957
     56  OH         3.5830    4.0170   56.4140 O.3   198  TYR198     -0.2866
     57  N          6.8590    0.3530   51.8660 N.3   200  HIS200     -0.1241
     58  CA         6.9650    1.6900   51.2950 C.3   200  HIS200      0.1621
     59  C          6.0930    1.7650   50.0380 C.2   200  HIS200      0.2264
     60  O          6.1510    0.8790   49.1860 O.2   200  HIS200     -0.2867
     61  CB         8.4300    1.9650   50.9420 C.3   200  HIS200      0.0745
     62  CG         8.7420    3.4110   50.7400 C.ar  200  HIS200      0.0817
     63  ND1       10.0030    3.8560   50.4120 N.ar  200  HIS200     -0.2268
     64  CD2        7.9670    4.5160   50.8420 C.ar  200  HIS200      0.1154
     65  CE1        9.9930    5.1740   50.3230 C.ar  200  HIS200      0.1986
     66  NE2        8.7690    5.5990   50.5780 N.ar  200  HIS200     -0.2212
     67  N         -0.8230    8.0530   56.4540 N.3   234  TRP234     -0.1241
     68  CA         0.1230    8.0960   55.3500 C.3   234  TRP234      0.1605
     69  C         -0.5050    7.7720   54.0090 C.2   234  TRP234      0.2264
     70  O          0.0800    7.1050   53.1510 O.2   234  TRP234     -0.2867
     71  CB         1.3300    7.2050   55.6330 C.3   234  TRP234      0.0550
     72  CG         2.1640    7.8070   56.7290 C.ar  234  TRP234      0.0003
     73  CD1        2.2130    7.4080   58.0310 C.ar  234  TRP234      0.0946
     74  CD2        2.9890    8.9810   56.6370 C.ar  234  TRP234      0.0152
     75  NE1        3.0090    8.2570   58.7580 N.ar  234  TRP234     -0.2442
     76  CE2        3.5010    9.2320   57.9290 C.ar  234  TRP234      0.0810
     77  CE3        3.3430    9.8460   55.5880 C.ar  234  TRP234      0.0012
     78  CZ2        4.3560   10.3150   58.2050 C.ar  234  TRP234      0.0191
     79  CZ3        4.1940   10.9250   55.8630 C.ar  234  TRP234      0.0001
     80  CH2        4.6880   11.1440   57.1640 C.ar  234  TRP234      0.0015
     81  N         -0.3310    4.8420   51.2760 N.3   237  GLU237     -0.1245
     82  CA         0.6650    3.9330   51.8330 C.3   237  GLU237      0.1567
     83  C          0.0560    3.1630   52.9860 C.2   237  GLU237      0.2260
     84  O          0.3750    1.9900   53.2000 O.2   237  GLU237     -0.2867
     85  CB         1.9010    4.6780   52.3390 C.3   237  GLU237      0.0388
     86  CG         3.0060    3.7170   52.7580 C.3   237  GLU237      0.1160
     87  CD         4.3090    4.4170   53.0140 C.2   237  GLU237      0.3649
     88  OE1        4.5200    4.8930   54.1500 O.co2 237  GLU237     -0.2457
     89  OE2        5.1130    4.5020   52.0700 O.co2 237  GLU237     -0.2457
     90  N         17.4320    5.5760   51.7480 N.3   260  ASP260     -0.1239
     91  CA        17.4840    7.0040   52.0380 C.3   260  ASP260      0.1674
     92  C         18.8450    7.2880   52.6590 C.2   260  ASP260      0.2266
     93  O         19.1370    6.8680   53.7810 O.2   260  ASP260     -0.2867
     94  CB        16.3770    7.4110   53.0060 C.3   260  ASP260      0.1410
     95  CG        16.4580    8.8800   53.3960 C.2   260  ASP260      0.3668
     96  OD1       17.2410    9.6290   52.7730 O.co2 260  ASP260     -0.2456
     97  OD2       15.7340    9.2820   54.3220 O.co2 260  ASP260     -0.2456
     98  N         16.4290    7.7960   47.7080 N.3   276  TRP276     -0.1241
     99  CA        15.3980    8.8180   47.8640 C.3   276  TRP276      0.1605
    100  C         15.9450   10.1850   47.4680 C.2   276  TRP276      0.2264
    101  O         17.1280   10.4600   47.6450 O.2   276  TRP276     -0.2867
    102  CB        14.9790    8.9360   49.3270 C.3   276  TRP276      0.0550
    103  CG        14.2800    7.7800   49.9500 C.ar  276  TRP276      0.0003
    104  CD1       14.3840    6.4550   49.6140 C.ar  276  TRP276      0.0946
    105  CD2       13.4610    7.8340   51.1210 C.ar  276  TRP276      0.0152
    106  NE1       13.6810    5.6840   50.5160 N.ar  276  TRP276     -0.2442
    107  CE2       13.1090    6.5050   51.4510 C.ar  276  TRP276      0.0810
    108  CE3       12.9950    8.8790   51.9300 C.ar  276  TRP276      0.0012
    109  CZ2       12.3160    6.1970   52.5550 C.ar  276  TRP276      0.0191
    110  CZ3       12.2060    8.5700   53.0280 C.ar  276  TRP276      0.0001
    111  CH2       11.8760    7.2380   53.3300 C.ar  276  TRP276      0.0015
    112  N         13.6750   15.7220   50.3350 N.3   279  LYS279     -0.1245
    113  CA        12.3390   16.3090   50.2830 C.3   279  LYS279      0.1561
    114  C         12.4650   17.8200   50.0850 C.2   279  LYS279      0.2260
    115  O         13.3620   18.4440   50.6380 O.2   279  LYS279     -0.2867
    116  CB        11.5770   16.0130   51.5790 C.3   279  LYS279      0.0271
    117  CG        11.5040   14.5200   51.9500 C.3   279  LYS279      0.0035
    118  CD        10.8230   13.7070   50.8670 C.3   279  LYS279      0.0206
    119  CE        10.7350   12.2380   51.2570 C.3   279  LYS279      0.1093
    120  NZ        10.0500   11.4210   50.2200 N.3   279  LYS279     -0.1314
    121  N          9.3110   19.8650   49.8910 N.3   281  TYR281     -0.1241
    122  CA         7.8850   20.1700   49.9460 C.3   281  TYR281      0.1605
    123  C          7.5360   21.6410   49.8060 C.2   281  TYR281      0.2264
    124  O          6.5060   21.9850   49.2300 O.2   281  TYR281     -0.2867
    125  CB         7.3000   19.6660   51.2600 C.3   281  TYR281      0.0534
    126  CG         7.3840   18.1670   51.4640 C.ar  281  TYR281     -0.0201
    127  CD1        7.3260   17.6270   52.7440 C.ar  281  TYR281     -0.0009
    128  CD2        7.4970   17.2900   50.3830 C.ar  281  TYR281     -0.0009
    129  CE1        7.3760   16.2510   52.9520 C.ar  281  TYR281      0.0417
    130  CE2        7.5500   15.9070   50.5810 C.ar  281  TYR281      0.0417
    131  CZ         7.4880   15.3980   51.8700 C.ar  281  TYR281      0.1957
    132  OH         7.5370   14.0370   52.1010 O.3   281  TYR281     -0.2866
@<TRIPOS>BOND
     1   100   101    2
     2   100    99    1
     3    98    99    1
     4    99   102    1
     5    60    59    2
     6   124   123    2
     7   102   103    1
     8   104   103   ar
     9   104   106   ar
    10   123   122    1
    11   121   122    1
    12   122   125    1
    13   103   105   ar
    14    59    58    1
    15   114   113    1
    16   114   115    2
    17   120   119    1
    18   113   112    1
    19   113   116    1
    20    65    63   ar
    21    65    66   ar
    22   128   130   ar
    23   128   126   ar
    24    63    62   ar
    25   106   107   ar
    26    66    64   ar
    27   130   131   ar
    28    62    64   ar
    29    62    61    1
    30   118   119    1
    31   118   117    1
    32    61    58    1
    33   105   107   ar
    34   105   108   ar
    35   125   126    1
    36    81    82    1
    37    58    57    1
    38   107   109   ar
    39   126   127   ar
    40   116   117    1
    41    90    91    1
    42    82    85    1
    43    82    83    1
    44   131   132    1
    45   131   129   ar
    46   108   110   ar
    47    91    92    1
    48    91    94    1
    49    89    87   ar
    50    85    86    1
    51   109   111   ar
    52    92    93    2
    53   127   129   ar
    54    86    87    1
    55    96    95   ar
    56    83    84    2
    57    94    95    1
    58    87    88   ar
    59   110   111   ar
    60    70    69    2
    61    95    97   ar
    62     1     2    1
    63    69    68    1
    64     2     5    1
    65     2     3    1
    66     6     5    1
    67     6     7    1
    68     3     4    2
    69     7     9   am
    70     7     8    2
    71    68    71    1
    72    68    67    1
    73    48    47    2
    74    77    79   ar
    75    77    74   ar
    76    47    46    1
    77    71    72    1
    78    79    80   ar
    79    18    16   ar
    80    18    19   ar
    81    53    51   ar
    82    53    55   ar
    83    16    15   ar
    84    56    55    1
    85    74    72   ar
    86    74    76   ar
    87    72    73   ar
    88    10    11    1
    89    51    50   ar
    90    55    54   ar
    91    46    45    1
    92    46    49    1
    93    80    78   ar
    94    19    21   ar
    95    19    17   ar
    96    21    23   ar
    97    50    49    1
    98    50    52   ar
    99    54    52   ar
   100    15    17   ar
   101    15    14    1
   102    76    78   ar
   103    76    75   ar
   104    73    75   ar
   105    11    14    1
   106    11    12    1
   107    17    20   ar
   108    24    12   am
   109    24    25    1
   110    23    22   ar
   111    30    32   ar
   112    30    29   ar
   113    12    13    2
   114    32    33   ar
   115    26    25    1
   116    26    27    2
   117    43    42    1
   118    20    22   ar
   119    41    40    2
   120    25    28    1
   121    28    29    1
   122    29    31   ar
   123    40    39    1
   124    33    31   ar
   125    33    35   ar
   126    42    39    1
   127    42    44    1
   128    31    34   ar
   129    39    38    1
   130    35    37   ar
   131    34    36   ar
   132    37    36   ar
