@<TRIPOS>MOLECULE
tmp/2vs5B00.pdb
 187 189 0 0 0
SMALL
GASTEIGER

@<TRIPOS>ATOM
      1  N         48.1620   22.7210   14.4540 N.3    53  PHE53      -0.1227
      2  CA        48.9500   21.4970   14.3940 C.3    53  PHE53       0.1736
      3  C         48.0500   20.2680   14.4400 C.2    53  PHE53       0.2595
      4  O         47.0860   20.2200   15.1970 O.2    53  PHE53      -0.2718
      5  CB        49.9210   21.4110   15.5800 C.3    53  PHE53       0.0547
      6  CG        51.0110   22.4470   15.5670 C.ar   53  PHE53      -0.0202
      7  CD1       50.7100   23.8020   15.7030 C.ar   53  PHE53      -0.0042
      8  CD2       52.3480   22.0650   15.4420 C.ar   53  PHE53      -0.0042
      9  CE1       51.7200   24.7590   15.7180 C.ar   53  PHE53      -0.0003
     10  CE2       53.3680   23.0100   15.4560 C.ar   53  PHE53      -0.0003
     11  CZ        53.0560   24.3630   15.5950 C.ar   53  PHE53      -0.0000
     12  N         48.3770   19.2730   13.6280 N.am   54  ALA54      -0.1966
     13  CA        47.6290   18.0210   13.6040 C.3    54  ALA54       0.1728
     14  C         48.6690   16.9200   13.4540 C.2    54  ALA54       0.2616
     15  O         49.2240   16.7220   12.3740 O.2    54  ALA54      -0.2715
     16  CB        46.6520   17.9960   12.4370 C.3    54  ALA54       0.0334
     17  N         48.9480   16.2250   14.5510 N.am   55  VAL55      -0.1963
     18  CA        49.9350   15.1510   14.5500 C.3    55  VAL55       0.1727
     19  C         49.3140   13.8060   14.9200 C.2    55  VAL55       0.2617
     20  O         48.5360   13.7040   15.8740 O.2    55  VAL55      -0.2715
     21  CB        51.0830   15.4680   15.5340 C.3    55  VAL55       0.0290
     22  CG1       52.0620   14.3160   15.5880 C.3    55  VAL55       0.0023
     23  CG2       51.7860   16.7520   15.1100 C.3    55  VAL55       0.0023
     24  N         49.6640   12.7710   14.1620 N.am   56  GLY56      -0.1940
     25  CA        49.1200   11.4540   14.4330 C.3    56  GLY56       0.2014
     26  C         47.6280   11.3810   14.1510 C.2    56  GLY56       0.2639
     27  O         47.1560   11.9020   13.1340 O.2    56  GLY56      -0.2714
     28  N         46.8950   10.7370   15.0600 N.am   57  ARG57      -0.1963
     29  CA        45.4430   10.5520   14.9570 C.3    57  ARG57       0.1729
     30  C         44.6450   11.8340   14.7790 C.2    57  ARG57       0.2616
     31  O         43.5710   11.8300   14.1700 O.2    57  ARG57      -0.2715
     32  CB        44.9020    9.8510   16.2070 C.3    57  ARG57       0.0348
     33  CG        45.1710    8.3620   16.2920 C.3    57  ARG57       0.0492
     34  CD        43.8530    7.5700   16.3560 C.3    57  ARG57       0.2205
     35  NE        43.2550    7.3840   15.0290 N.pl3  57  ARG57      -0.0865
     36  CZ        42.1360    6.7000   14.7920 C.cat  57  ARG57       0.5346
     37  NH1       41.4770    6.1310   15.7960 N.pl3  57  ARG57       0.1354
     38  NH2       41.6770    6.5830   13.5480 N.pl3  57  ARG57       0.1354
     39  N         45.1530   12.9260   15.3350 N.am   58  TYR58      -0.1974
     40  CA        44.4540   14.1980   15.2510 C.3    58  TYR58       0.1639
     41  C         44.2040   14.6550   13.8250 C.2    58  TYR58       0.2290
     42  O         43.2920   15.4440   13.5790 O.2    58  TYR58      -0.2864
     43  CB        45.2210   15.2720   16.0180 C.3    58  TYR58       0.0560
     44  CG        45.1210   15.1210   17.5180 C.ar   58  TYR58      -0.0198
     45  CD1       44.6980   16.1830   18.3140 C.ar   58  TYR58      -0.0009
     46  CD2       45.4450   13.9120   18.1430 C.ar   58  TYR58      -0.0009
     47  CE1       44.5970   16.0550   19.7010 C.ar   58  TYR58       0.0417
     48  CE2       45.3510   13.7700   19.5260 C.ar   58  TYR58       0.0417
     49  CZ        44.9270   14.8500   20.2980 C.ar   58  TYR58       0.1957
     50  OH        44.8510   14.7300   21.6580 O.3    58  TYR58      -0.2866
     51  N         52.8600   12.8410   23.9170 N.3   114  TRP114     -0.1241
     52  CA        51.8040   13.7950   23.5960 C.3   114  TRP114      0.1605
     53  C         52.0410   15.1400   24.2790 C.2   114  TRP114      0.2264
     54  O         51.6250   16.1740   23.7690 O.2   114  TRP114     -0.2867
     55  CB        50.4160   13.2510   23.9760 C.3   114  TRP114      0.0550
     56  CG        50.0460   13.3860   25.4200 C.ar  114  TRP114      0.0003
     57  CD1       50.2140   12.4540   26.4090 C.ar  114  TRP114      0.0946
     58  CD2       49.4560   14.5360   26.0490 C.ar  114  TRP114      0.0152
     59  NE1       49.7620   12.9520   27.6140 N.ar  114  TRP114     -0.2442
     60  CE2       49.2970   14.2280   27.4210 C.ar  114  TRP114      0.0810
     61  CE3       49.0490   15.7960   25.5850 C.ar  114  TRP114      0.0012
     62  CZ2       48.7480   15.1410   28.3380 C.ar  114  TRP114      0.0191
     63  CZ3       48.5010   16.7040   26.4940 C.ar  114  TRP114      0.0001
     64  CH2       48.3580   16.3690   27.8550 C.ar  114  TRP114      0.0015
     65  N         54.2510   17.0550   21.9890 N.3   117  ILE117     -0.1231
     66  CA        53.6000   17.4500   20.7490 C.3   117  ILE117      0.1692
     67  C         52.9300   18.7950   21.0180 C.2   117  ILE117      0.2592
     68  O         52.9630   19.7020   20.1920 O.2   117  ILE117     -0.2718
     69  CB        52.5280   16.4360   20.3170 C.3   117  ILE117      0.0266
     70  CG1       53.1890   15.1040   19.9390 C.3   117  ILE117      0.0019
     71  CG2       51.7530   16.9840   19.1320 C.3   117  ILE117      0.0020
     72  CD1       52.2180   14.0430   19.4660 C.3   117  ILE117      0.0001
     73  N         52.3350   18.9150   22.1980 N.am  118  SER118     -0.1952
     74  CA        51.6630   20.1460   22.5790 C.3   118  SER118      0.1924
     75  C         52.6540   21.2720   22.8440 C.2   118  SER118      0.2314
     76  O         52.5280   22.3580   22.2790 O.2   118  SER118     -0.2863
     77  CB        50.8120   19.9190   23.8300 C.3   118  SER118      0.2116
     78  OG        50.0830   21.0860   24.1590 O.3   118  SER118     -0.2180
     79  N         54.9740   23.0450   20.0540 N.3   121  ARG121     -0.1245
     80  CA        54.2780   23.9760   19.1750 C.3   121  ARG121      0.1563
     81  C         54.8440   25.3820   19.4020 C.2   121  ARG121      0.2260
     82  O         54.9730   26.1710   18.4690 O.2   121  ARG121     -0.2867
     83  CB        52.7740   23.9930   19.4780 C.3   121  ARG121      0.0307
     84  CG        52.0100   22.7780   19.0140 C.3   121  ARG121      0.0489
     85  CD        50.5230   22.9780   19.2630 C.3   121  ARG121      0.2205
     86  NE        50.1810   22.9860   20.6850 N.pl3 121  ARG121     -0.0865
     87  CZ        48.9950   23.3600   21.1560 C.cat 121  ARG121      0.5346
     88  NH1       48.0480   23.7630   20.3220 N.pl3 121  ARG121      0.1354
     89  NH2       48.7440   23.3060   22.4550 N.pl3 121  ARG121      0.1354
     90  N         44.3310   25.2070   18.9230 N.3   144  ASP144     -0.1225
     91  CA        44.2960   23.7640   19.0740 C.3   144  ASP144      0.1805
     92  C         43.4910   23.3030   17.8640 C.2   144  ASP144      0.2598
     93  O         42.6610   24.0570   17.3520 O.2   144  ASP144     -0.2718
     94  CB        43.5300   23.3860   20.3390 C.3   144  ASP144      0.1424
     95  CG        44.4240   23.2310   21.5440 C.2   144  ASP144      0.3668
     96  OD1       45.5460   23.7950   21.5540 O.co2 144  ASP144     -0.2456
     97  OD2       43.9920   22.5510   22.4950 O.co2 144  ASP144     -0.2456
     98  N         43.7200   22.0750   17.4110 N.am  145  VAL145     -0.1966
     99  CA        42.9900   21.5610   16.2600 C.3   145  VAL145      0.1727
    100  C         41.6720   20.8940   16.6680 C.2   145  VAL145      0.2616
    101  O         40.7300   20.8480   15.8840 O.2   145  VAL145     -0.2715
    102  CB        43.8290   20.5350   15.4730 C.3   145  VAL145      0.0290
    103  CG1       43.9680   19.2480   16.2790 C.3   145  VAL145      0.0023
    104  CG2       43.1830   20.2590   14.1100 C.3   145  VAL145      0.0023
    105  N         41.6080   20.3950   17.9020 N.am  146  ASP146     -0.1971
    106  CA        40.4120   19.7060   18.3860 C.3   146  ASP146      0.1709
    107  C         39.2570   20.6150   18.8000 C.2   146  ASP146      0.2293
    108  O         38.7170   20.4960   19.9070 O.2   146  ASP146     -0.2864
    109  CB        40.7790   18.7620   19.5430 C.3   146  ASP146      0.1436
    110  CG        41.3260   19.4980   20.7540 C.2   146  ASP146      0.3671
    111  OD1       41.9770   20.5490   20.5620 O.co2 146  ASP146     -0.2456
    112  OD2       41.1180   19.0140   21.8960 O.co2 146  ASP146     -0.2456
    113  N         43.1210   29.9480   28.3780 N.3   199  HIS199     -0.1226
    114  CA        43.1220   28.6830   27.6620 C.3   199  HIS199      0.1752
    115  C         44.1590   28.7650   26.5510 C.2   199  HIS199      0.2596
    116  O         44.0890   29.6600   25.7100 O.2   199  HIS199     -0.2718
    117  CB        41.7370   28.4480   27.0520 C.3   199  HIS199      0.0759
    118  CG        41.5010   27.0430   26.5960 C.ar  199  HIS199      0.0818
    119  ND1       40.3190   26.6430   26.0100 N.ar  199  HIS199     -0.2268
    120  CD2       42.2780   25.9370   26.6710 C.ar  199  HIS199      0.1154
    121  CE1       40.3780   25.3490   25.7470 C.ar  199  HIS199      0.1986
    122  NE2       41.5550   24.8960   26.1390 N.ar  199  HIS199     -0.2212
    123  N         45.1130   27.8380   26.5420 N.am  200  ALA200     -0.1966
    124  CA        46.1530   27.8380   25.5130 C.3   200  ALA200      0.1728
    125  C         45.6600   27.3130   24.1600 C.2   200  ALA200      0.2616
    126  O         46.4450   27.2110   23.2140 O.2   200  ALA200     -0.2715
    127  CB        47.3510   27.0220   25.9800 C.3   200  ALA200      0.0334
    128  N         44.3700   26.9740   24.0710 N.am  201  ALA201     -0.1977
    129  CA        43.7970   26.4760   22.8220 C.3   201  ALA201      0.1597
    130  C         43.6080   27.6120   21.8140 C.2   201  ALA201      0.2287
    131  O         43.3860   27.3710   20.6210 O.2   201  ALA201     -0.2864
    132  CB        42.4610   25.7870   23.0870 C.3   201  ALA201      0.0319
    133  N         49.9100   21.2350   33.4960 N.3   233  TRP233     -0.1227
    134  CA        49.1310   21.5650   32.3070 C.3   233  TRP233      0.1737
    135  C         50.0140   22.0860   31.1840 C.2   233  TRP233      0.2595
    136  O         49.5850   22.8450   30.3150 O.2   233  TRP233     -0.2718
    137  CB        48.0180   22.5530   32.6720 C.3   233  TRP233      0.0564
    138  CG        47.1220   21.9640   33.7150 C.ar  233  TRP233      0.0003
    139  CD1       46.8230   22.4920   34.9400 C.ar  233  TRP233      0.0946
    140  CD2       46.4760   20.6790   33.6650 C.ar  233  TRP233      0.0152
    141  NE1       46.0390   21.6160   35.6570 N.ar  233  TRP233     -0.2442
    142  CE2       45.8100   20.4970   34.8990 C.ar  233  TRP233      0.0810
    143  CE3       46.4010   19.6640   32.6970 C.ar  233  TRP233      0.0012
    144  CZ2       45.0730   19.3360   35.1950 C.ar  233  TRP233      0.0191
    145  CZ3       45.6690   18.5070   32.9910 C.ar  233  TRP233      0.0001
    146  CH2       45.0160   18.3550   34.2330 C.ar  233  TRP233      0.0015
    147  N         51.2670   21.6560   31.2410 N.am  234  HIS234     -0.1961
    148  CA        52.2770   21.9580   30.2410 C.3   234  HIS234      0.1787
    149  C         52.3030   23.3880   29.7040 C.2   234  HIS234      0.2620
    150  O         52.3730   24.3270   30.4890 O.2   234  HIS234     -0.2715
    151  CB        52.1210   20.9280   29.1280 C.3   234  HIS234      0.0785
    152  CG        51.6710   19.5930   29.6380 C.ar  234  HIS234      0.0821
    153  ND1       50.3440   19.2180   29.6700 N.ar  234  HIS234     -0.2267
    154  CD2       52.3560   18.6000   30.2540 C.ar  234  HIS234      0.1154
    155  CE1       50.2310   18.0540   30.2850 C.ar  234  HIS234      0.1986
    156  NE2       51.4370   17.6580   30.6510 N.ar  234  HIS234     -0.2212
    157  N         52.2610   23.5600   28.3820 N.am  235  ASP235     -0.1957
    158  CA        52.3230   24.9030   27.8090 C.3   235  ASP235      0.1840
    159  C         51.2290   25.8490   28.2830 C.2   235  ASP235      0.2621
    160  O         51.4240   27.0630   28.2900 O.2   235  ASP235     -0.2715
    161  CB        52.3520   24.8540   26.2730 C.3   235  ASP235      0.1450
    162  CG        51.2670   23.9740   25.6880 C.2   235  ASP235      0.3671
    163  OD1       50.2880   24.5140   25.1340 O.co2 235  ASP235     -0.2456
    164  OD2       51.4020   22.7360   25.7800 O.co2 235  ASP235     -0.2456
    165  N         50.0850   25.3110   28.6950 N.am  236  GLN236     -0.1977
    166  CA        49.0190   26.1780   29.1790 C.3   236  GLN236      0.1601
    167  C         49.4590   26.8710   30.4740 C.2   236  GLN236      0.2287
    168  O         49.1400   28.0380   30.7110 O.2   236  GLN236     -0.2864
    169  CB        47.7400   25.3790   29.4190 C.3   236  GLN236      0.0394
    170  CG        46.5860   26.2420   29.8830 C.3   236  GLN236      0.0908
    171  CD        45.2500   25.5780   29.6420 C.2   236  GLN236      0.2608
    172  OE1       44.6480   25.0060   30.5530 O.2   236  GLN236     -0.2717
    173  NE2       44.7870   25.6380   28.4040 N.am  236  GLN236     -0.0878
    174  N         34.6320   23.2120   21.8040 N.3   275  TRP275     -0.1241
    175  CA        35.5930   22.1300   21.9850 C.3   275  TRP275      0.1605
    176  C         35.0240   20.8990   21.2920 C.2   275  TRP275      0.2264
    177  O         33.8090   20.7150   21.2590 O.2   275  TRP275     -0.2867
    178  CB        35.7550   21.7900   23.4730 C.3   275  TRP275      0.0550
    179  CG        36.3000   22.8630   24.3740 C.ar  275  TRP275      0.0003
    180  CD1       36.2140   24.2200   24.2100 C.ar  275  TRP275      0.0946
    181  CD2       36.9310   22.6530   25.6420 C.ar  275  TRP275      0.0152
    182  NE1       36.7530   24.8660   25.3070 N.ar  275  TRP275     -0.2442
    183  CE2       37.1970   23.9270   26.1980 C.ar  275  TRP275      0.0810
    184  CE3       37.2920   21.5100   26.3670 C.ar  275  TRP275      0.0012
    185  CZ2       37.8090   24.0870   27.4480 C.ar  275  TRP275      0.0191
    186  CZ3       37.9020   21.6690   27.6090 C.ar  275  TRP275      0.0001
    187  CH2       38.1520   22.9510   28.1350 C.ar  275  TRP275      0.0015
@<TRIPOS>BOND
     1    15    14    2
     2    16    13    1
     3    27    26    2
     4    14    13    1
     5    14    17   am
     6    38    36    1
     7    42    41    2
     8    13    12    1
     9    12     3   am
    10    41    40    1
    11   104   102    1
    12    26    25    1
    13    26    28   am
    14    24    25    1
    15    24    19   am
    16    31    30    2
    17     2     3    1
    18     2     1    1
    19     2     5    1
    20     3     4    2
    21    18    17    1
    22    18    19    1
    23    18    21    1
    24    30    29    1
    25    30    39   am
    26    36    35    2
    27    36    37    1
    28    19    20    2
    29    29    28    1
    30    29    32    1
    31    35    34    1
    32    23    21    1
    33    40    39    1
    34    40    43    1
    35     8    10   ar
    36     8     6   ar
    37    10    11   ar
    38   102    99    1
    39   102   103    1
    40    21    22    1
    41     6     5    1
    42     6     7   ar
    43    11     9   ar
    44     7     9   ar
    45   101   100    2
    46    43    44    1
    47    32    33    1
    48    99   100    1
    49    99    98    1
    50    33    34    1
    51   100   105   am
    52    93    92    2
    53    98    92   am
    54    44    46   ar
    55    44    45   ar
    56    92    91    1
    57   105   106    1
    58    46    48   ar
    59    45    47   ar
    60   106   107    1
    61   106   109    1
    62    82    81    2
    63   107   108    2
    64    90    91    1
    65    84    85    1
    66    84    83    1
    67    91    94    1
    68    71    69    1
    69    80    81    1
    70    80    83    1
    71    80    79    1
    72    85    86    1
    73    72    70    1
    74    48    49   ar
    75   109   110    1
    76    47    49   ar
    77    70    69    1
    78    68    67    2
    79    49    50    1
    80    69    66    1
    81    88    87    1
    82    94    95    1
    83   111   110   ar
    84   131   130    2
    85    86    87    2
    86    66    67    1
    87    66    65    1
    88   110   112   ar
    89    67    73   am
    90    87    89    1
    91   177   176    2
    92   176   175    1
    93    95    96   ar
    94    95    97   ar
    95   174   175    1
    96   130   129    1
    97   175   178    1
    98    73    74    1
    99    76    75    2
   100    74    75    1
   101    74    77    1
   102   129   132    1
   103   129   128    1
   104   126   125    2
   105   178   179    1
   106    52    51    1
   107    52    55    1
   108    52    53    1
   109    54    53    2
   110    77    78    1
   111    55    56    1
   112   128   125   am
   113   125   124    1
   114   180   179   ar
   115   180   182   ar
   116   179   181   ar
   117   163   162   ar
   118   182   183   ar
   119    56    58   ar
   120    56    57   ar
   121   124   127    1
   122   124   123    1
   123    61    58   ar
   124    61    63   ar
   125   181   183   ar
   126   181   184   ar
   127   162   164   ar
   128   162   161    1
   129   116   115    2
   130   121   119   ar
   131   121   122   ar
   132   119   118   ar
   133    58    60   ar
   134   122   120   ar
   135   183   185   ar
   136   161   158    1
   137   184   186   ar
   138    57    59   ar
   139    63    64   ar
   140   123   115   am
   141   115   114    1
   142   118   120   ar
   143   118   117    1
   144   117   114    1
   145    60    59   ar
   146    60    62   ar
   147   185   187   ar
   148   186   187   ar
   149   114   113    1
   150   158   159    1
   151   158   157    1
   152    64    62   ar
   153   159   160    2
   154   159   165   am
   155   157   149   am
   156   173   171   am
   157   165   166    1
   158   151   152    1
   159   151   148    1
   160   166   169    1
   161   166   167    1
   162   169   170    1
   163   152   153   ar
   164   152   154   ar
   165   171   170    1
   166   171   172    2
   167   153   155   ar
   168   149   148    1
   169   149   150    2
   170   148   147    1
   171   154   156   ar
   172   155   156   ar
   173   136   135    2
   174   167   168    2
   175   135   147   am
   176   135   134    1
   177   134   137    1
   178   134   133    1
   179   137   138    1
   180   143   145   ar
   181   143   140   ar
   182   145   146   ar
   183   140   138   ar
   184   140   142   ar
   185   138   139   ar
   186   146   144   ar
   187   142   144   ar
   188   142   141   ar
   189   139   141   ar
