@<TRIPOS>MOLECULE
tmp/2vsdA00.pdb
 74 70 0 0 0
SMALL
GASTEIGER

@<TRIPOS>ATOM
      1  N         45.0330   19.3840    5.4110 N.3    37  LEU37      -0.1231
      2  CA        43.8180   20.1600    5.1000 C.3    37  LEU37       0.1693
      3  C         44.2400   21.4760    4.4430 C.2    37  LEU37       0.2592
      4  O         45.0290   22.2340    5.0470 O.2    37  LEU37      -0.2718
      5  CB        42.9980   20.4140    6.3910 C.3    37  LEU37       0.0284
      6  CG        41.8590   21.4470    6.2940 C.3    37  LEU37       0.0019
      7  CD1       40.8650   21.0810    5.1420 C.3    37  LEU37       0.0001
      8  CD2       41.0870   21.5890    7.6100 C.3    37  LEU37       0.0001
      9  N         43.7590   21.7360    3.2120 N.am   38  ASN38      -0.1974
     10  CA        44.0870   22.9900    2.5060 C.3    38  ASN38       0.1688
     11  C         45.6030   23.1970    2.4060 C.2    38  ASN38       0.2292
     12  O         46.1120   24.3400    2.4800 O.2    38  ASN38      -0.2864
     13  CB        43.4540   24.2130    3.1910 C.3    38  ASN38       0.1181
     14  CG        41.9350   24.1840    3.1940 C.2    38  ASN38       0.2629
     15  OD1       41.2970   23.3330    2.5530 O.2    38  ASN38      -0.2716
     16  ND2       41.3570   25.1150    3.9860 N.am   38  ASN38      -0.0877
     17  N         33.2810   25.7770   11.1370 N.3    63  LEU63      -0.1231
     18  CA        33.2050   25.9600    9.6970 C.3    63  LEU63       0.1693
     19  C         34.5600   25.7580    9.0170 C.2    63  LEU63       0.2591
     20  O         34.5800   25.4270    7.8140 O.2    63  LEU63      -0.2718
     21  CB        32.7160   27.3780    9.3830 C.3    63  LEU63       0.0284
     22  CG        31.2830   27.6780    9.8450 C.3    63  LEU63       0.0019
     23  CD1       30.9750   29.1700    9.5360 C.3    63  LEU63       0.0001
     24  CD2       30.2570   26.7640    9.2560 C.3    63  LEU63       0.0001
     25  N         35.6510   25.9500    9.7500 N.am   64  GLU64      -0.1979
     26  CA        36.9860   25.7950    9.1700 C.3    64  GLU64       0.1602
     27  C         37.3980   24.3440    8.9410 C.2    64  GLU64       0.2287
     28  O         38.4450   24.0820    8.3450 O.2    64  GLU64      -0.2864
     29  CB        38.0460   26.5950    9.9510 C.3    64  GLU64       0.0415
     30  CG        37.7220   28.1230    9.9370 C.3    64  GLU64       0.1163
     31  CD        38.7580   28.9360   10.6930 C.2    64  GLU64       0.3649
     32  OE1       39.5360   28.3350   11.4620 O.co2  64  GLU64      -0.2457
     33  OE2       38.7770   30.1820   10.5250 O.co2  64  GLU64      -0.2457
     34  N         35.7270   22.5120    6.9520 N.3    66  ALA66      -0.1231
     35  CA        35.4480   22.3150    5.5340 C.3    66  ALA66       0.1694
     36  C         36.7450   22.4480    4.7320 C.2    66  ALA66       0.2592
     37  O         37.6810   23.0990    5.1690 O.2    66  ALA66      -0.2718
     38  CB        34.4210   23.3610    5.0670 C.3    66  ALA66       0.0304
     39  N         36.8260   21.8090    3.5720 N.am   67  GLY67      -0.1957
     40  CA        37.9650   22.1080    2.6980 C.3    67  GLY67       0.1869
     41  C         38.5540   20.8840    2.0480 C.2    67  GLY67       0.2309
     42  O         37.9040   19.8270    1.9530 O.2    67  GLY67      -0.2863
     43  N         36.9680   16.4790   -0.7750 N.3    89  GLU89      -0.1231
     44  CA        36.4710   17.7320   -0.2300 C.3    89  GLU89       0.1699
     45  C         35.3900   17.4680    0.8350 C.2    89  GLU89       0.2592
     46  O         34.4200   16.7220    0.5700 O.2    89  GLU89      -0.2718
     47  CB        35.9260   18.5700   -1.3710 C.3    89  GLU89       0.0402
     48  CG        35.7170   20.0390   -0.9970 C.3    89  GLU89       0.1161
     49  CD        36.9900   20.8720   -1.0180 C.2    89  GLU89       0.3649
     50  OE1       38.0400   20.4050   -1.5180 O.co2  89  GLU89      -0.2457
     51  OE2       36.9150   22.0400   -0.5790 O.co2  89  GLU89      -0.2457
     52  N         35.5910   18.0390    2.0360 N.am   90  LEU90      -0.1966
     53  CA        34.5080   18.1180    3.0620 C.3    90  LEU90       0.1728
     54  C         33.6940   19.4000    2.8660 C.2    90  LEU90       0.2616
     55  O         34.2150   20.5300    2.9440 O.2    90  LEU90      -0.2715
     56  CB        35.1010   18.0550    4.4800 C.3    90  LEU90       0.0311
     57  CG        34.0540   18.1370    5.5990 C.3    90  LEU90       0.0022
     58  CD1       33.0440   16.9380    5.4710 C.3    90  LEU90       0.0001
     59  CD2       34.7900   18.1050    6.9090 C.3    90  LEU90       0.0001
     60  N         32.4050   19.2160    2.5750 N.am   91  VAL91      -0.1963
     61  CA        31.5100   20.3110    2.2690 C.3    91  VAL91       0.1727
     62  C         30.5090   20.3070    3.3850 C.2    91  VAL91       0.2616
     63  O         29.9080   19.2880    3.6500 O.2    91  VAL91      -0.2715
     64  CB        30.7440   20.0610    0.9380 C.3    91  VAL91       0.0290
     65  CG1       29.7730   21.2440    0.6780 C.3    91  VAL91       0.0023
     66  CG2       31.7290   19.8730   -0.2160 C.3    91  VAL91       0.0023
     67  N         30.3250   21.4430    4.0420 N.am   92  LEU92      -0.1977
     68  CA        29.4370   21.4410    5.1890 C.3    92  LEU92       0.1596
     69  C         28.0630   21.9250    4.8090 C.2    92  LEU92       0.2287
     70  O         27.9120   22.9540    4.1370 O.2    92  LEU92      -0.2864
     71  CB        30.0310   22.2410    6.3570 C.3    92  LEU92       0.0297
     72  CG        31.2790   21.5640    6.9270 C.3    92  LEU92       0.0022
     73  CD1       31.9340   22.3070    8.1020 C.3    92  LEU92       0.0001
     74  CD2       30.9880   20.1080    7.3300 C.3    92  LEU92       0.0001
@<TRIPOS>BOND
     1    50    49   ar
     2    47    48    1
     3    47    44    1
     4    49    48    1
     5    49    51   ar
     6    43    44    1
     7    44    45    1
     8    66    64    1
     9    46    45    2
    10    65    64    1
    11    45    52   am
    12    64    61    1
    13    42    41    2
    14    52    53    1
    15    41    40    1
    16    61    60    1
    17    61    62    1
    18    11    12    2
    19    11    10    1
    20    10    13    1
    21    10     9    1
    22    15    14    2
    23    60    54   am
    24    40    39    1
    25    54    55    2
    26    54    53    1
    27    53    56    1
    28    13    14    1
    29    14    16   am
    30     9     3   am
    31    62    63    2
    32    62    67   am
    33    39    36   am
    34    67    68    1
    35    70    69    2
    36     3     4    2
    37     3     2    1
    38    56    57    1
    39    36    37    2
    40    36    35    1
    41    69    68    1
    42    38    35    1
    43     2     1    1
    44     2     5    1
    45     7     6    1
    46    68    71    1
    47    58    57    1
    48    35    34    1
    49    57    59    1
    50     6     5    1
    51     6     8    1
    52    71    72    1
    53    72    74    1
    54    72    73    1
    55    20    19    2
    56    28    27    2
    57    27    26    1
    58    19    18    1
    59    19    25   am
    60    26    25    1
    61    26    29    1
    62    24    22    1
    63    21    18    1
    64    21    22    1
    65    23    22    1
    66    18    17    1
    67    30    29    1
    68    30    31    1
    69    33    31   ar
    70    31    32   ar
