@<TRIPOS>MOLECULE
tmp/2vsiB00.pdb
 134 126 0 0 0
SMALL
GASTEIGER

@<TRIPOS>ATOM
      1  N        -16.9510   -9.7340   36.6350 N.3     8  LEU8       -0.1231
      2  CA       -16.1580  -10.9370   36.7940 C.3     8  LEU8        0.1693
      3  C        -14.7000  -10.5800   36.5670 C.2     8  LEU8        0.2592
      4  O        -14.2790  -10.3250   35.4300 O.2     8  LEU8       -0.2718
      5  CB       -16.6240  -12.0210   35.8200 C.3     8  LEU8        0.0284
      6  CG       -17.9710  -12.7140   36.0630 C.3     8  LEU8        0.0019
      7  CD1      -18.0690  -13.2740   37.4720 C.3     8  LEU8        0.0001
      8  CD2      -19.1430  -11.7780   35.7790 C.3     8  LEU8        0.0001
      9  N        -13.9400  -10.5590   37.6640 N.am    9  ALA9       -0.1966
     10  CA       -12.6350   -9.9110   37.6870 C.3     9  ALA9        0.1732
     11  C        -11.5790  -10.6310   38.5200 C.2     9  ALA9        0.2656
     12  O        -10.7510   -9.9750   39.1570 O.2     9  ALA9       -0.2711
     13  CB       -12.7930   -8.4720   38.1790 C.3     9  ALA9        0.0334
     14  N        -11.5820  -11.9620   38.5170 N.am   10  GLY10      -0.1716
     15  CA       -10.5730  -12.6850   39.2920 C.2    10  GLY10       0.1480
     16  C        -10.5480  -14.2000   39.2460 C.2    10  GLY10       0.2821
     17  O        -11.5890  -14.8580   39.3280 O.2    10  GLY10      -0.2669
     18  N         -9.3330  -14.7390   39.1390 N.am   11  GLY11      -0.1905
     19  CA        -9.0870  -16.1800   39.1180 C.3    11  GLY11       0.2017
     20  C         -7.7070  -16.5150   38.5720 C.2    11  GLY11       0.2639
     21  O         -7.1170  -15.7290   37.8210 O.2    11  GLY11      -0.2714
     22  N         -7.1870  -17.6770   38.9670 N.am   12  THR12      -0.1950
     23  CA        -5.9410  -18.2180   38.4030 C.3    12  THR12       0.1897
     24  C         -6.1360  -19.6560   37.8850 C.2    12  THR12       0.2313
     25  O         -7.2420  -20.2050   37.9590 O.2    12  THR12      -0.2863
     26  CB        -4.7490  -18.1400   39.4020 C.3    12  THR12       0.1794
     27  OG1       -5.1630  -18.5940   40.6980 O.3    12  THR12      -0.2208
     28  CG2       -4.2210  -16.7120   39.5040 C.3    12  THR12       0.0378
     29  N         -5.4960  -20.2440   34.7040 N.3    14  THR14      -0.1218
     30  CA        -5.4450  -19.9030   33.2840 C.3    14  THR14       0.1862
     31  C         -4.0810  -19.3300   32.9150 C.2    14  THR14       0.2287
     32  O         -3.0570  -19.9970   33.0630 O.2    14  THR14      -0.2866
     33  CB        -6.5370  -18.8750   32.9070 C.3    14  THR14       0.1770
     34  OG1       -6.7120  -17.9400   33.9820 O.3    14  THR14      -0.2211
     35  CG2       -7.8600  -19.5790   32.6230 C.3    14  THR14       0.0375
     36  N         -3.7220  -13.4470   33.3320 N.3    16  PRO16      -0.2116
     37  CA        -4.8630  -12.5250   33.2180 C.3    16  PRO16       0.1372
     38  C         -4.5460  -11.0550   33.5370 C.2    16  PRO16       0.2244
     39  O         -3.8360  -10.7590   34.5060 O.2    16  PRO16      -0.2868
     40  CB        -5.8640  -13.1130   34.2070 C.3    16  PRO16       0.0268
     41  CG        -5.6470  -14.5960   34.0580 C.3    16  PRO16       0.0207
     42  CD        -4.1670  -14.7900   33.7560 C.3    16  PRO16       0.0892
     43  N         -6.3300   -7.9800   34.1190 N.3    18  GLN18      -0.1245
     44  CA        -7.1950   -6.9280   34.6980 C.3    18  GLN18       0.1566
     45  C         -6.5040   -5.8380   35.5410 C.2    18  GLN18       0.2260
     46  O         -7.0760   -4.7700   35.7460 O.2    18  GLN18      -0.2867
     47  CB        -8.3950   -7.5130   35.4580 C.3    18  GLN18       0.0367
     48  CG        -8.0590   -8.4780   36.5830 C.3    18  GLN18       0.0905
     49  CD        -8.1230   -9.9340   36.1500 C.2    18  GLN18       0.2608
     50  OE1       -7.7020  -10.2910   35.0450 O.2    18  GLN18      -0.2717
     51  NE2       -8.6510  -10.7850   37.0230 N.am   18  GLN18      -0.0878
     52  N        -15.9240   -9.0050   41.3670 N.3    47  GLY47      -0.1225
     53  CA       -15.5460  -10.3340   41.8470 C.3    47  GLY47       0.1811
     54  C        -14.1210  -10.7210   41.4950 C.2    47  GLY47       0.2280
     55  O        -13.8610  -11.2510   40.4080 O.2    47  GLY47      -0.2866
     56  N        -14.9610  -17.1910   42.4140 N.3    77  GLY77      -0.1210
     57  CA       -14.9790  -18.6530   42.5600 C.3    77  GLY77       0.1956
     58  C        -13.9810  -19.3610   41.6600 C.2    77  GLY77       0.2612
     59  O        -13.1040  -18.7240   41.0800 O.2    77  GLY77      -0.2717
     60  N        -14.1130  -20.6830   41.5440 N.am   78  ALA78      -0.1965
     61  CA       -13.2500  -21.4870   40.6650 C.3    78  ALA78       0.1728
     62  C        -13.4680  -21.1660   39.1800 C.2    78  ALA78       0.2616
     63  O        -12.5110  -21.0860   38.4070 O.2    78  ALA78      -0.2715
     64  CB       -13.4510  -22.9820   40.9320 C.3    78  ALA78       0.0334
     65  N        -14.7310  -20.9870   38.7990 N.am   79  ASP79      -0.1957
     66  CA       -15.1120  -20.5790   37.4430 C.3    79  ASP79       0.1840
     67  C        -16.1000  -19.4170   37.5180 C.2    79  ASP79       0.2621
     68  O        -16.6800  -19.1700   38.5770 O.2    79  ASP79      -0.2715
     69  CB       -15.7140  -21.7570   36.6660 C.3    79  ASP79       0.1450
     70  CG       -16.7200  -22.5500   37.4840 C.2    79  ASP79       0.3671
     71  OD1      -17.9030  -22.6050   37.0900 O.co2  79  ASP79      -0.2456
     72  OD2      -16.3260  -23.1140   38.5240 O.co2  79  ASP79      -0.2456
     73  N        -16.2920  -18.7090   36.4030 N.am   80  ARG80      -0.1977
     74  CA       -17.1340  -17.4990   36.3860 C.3    80  ARG80       0.1597
     75  C        -18.5730  -17.7240   36.8550 C.2    80  ARG80       0.2287
     76  O        -19.2010  -16.8060   37.3780 O.2    80  ARG80      -0.2864
     77  CB       -17.1150  -16.7820   35.0220 C.3    80  ARG80       0.0334
     78  CG       -17.1230  -17.6820   33.7760 C.3    80  ARG80       0.0492
     79  CD       -18.0650  -17.1570   32.6790 C.3    80  ARG80       0.2205
     80  NE       -18.4710  -15.7590   32.8730 N.pl3  80  ARG80      -0.0865
     81  CZ       -18.0410  -14.7240   32.1520 C.cat  80  ARG80       0.5346
     82  NH1      -17.1760  -14.9010   31.1560 N.pl3  80  ARG80       0.1354
     83  NH2      -18.4850  -13.5020   32.4300 N.pl3  80  ARG80       0.1354
     84  N        -18.4050  -17.6860   40.4340 N.3    83  SER83      -0.1217
     85  CA       -18.2160  -16.2660   40.7280 C.3    83  SER83       0.1889
     86  C        -19.5320  -15.4900   40.6880 C.2    83  SER83       0.2288
     87  O        -19.8260  -14.7230   41.6060 O.2    83  SER83      -0.2866
     88  CB       -17.2030  -15.6430   39.7690 C.3    83  SER83       0.2089
     89  OG       -15.9960  -16.3820   39.7540 O.3    83  SER83      -0.2183
     90  N        -17.1900   -9.1030   31.7150 N.3   107  ASP107     -0.1225
     91  CA       -15.7530   -9.3300   31.8460 C.3   107  ASP107      0.1805
     92  C        -15.0110   -8.0400   32.1950 C.2   107  ASP107      0.2598
     93  O        -15.1550   -7.0300   31.5040 O.2   107  ASP107     -0.2718
     94  CB       -15.1710   -9.8890   30.5450 C.3   107  ASP107      0.1424
     95  CG       -15.6880  -11.2640   30.2080 C.2   107  ASP107      0.3668
     96  OD1      -16.1580  -11.9770   31.1170 O.co2 107  ASP107     -0.2456
     97  OD2      -15.6090  -11.6380   29.0210 O.co2 107  ASP107     -0.2456
     98  N        -14.2150   -8.0830   33.2610 N.am  108  SER108     -0.1938
     99  CA       -13.3380   -6.9610   33.6320 C.3   108  SER108      0.2055
    100  C        -12.3140   -6.6230   32.5460 C.2   108  SER108      0.2642
    101  O        -11.8640   -5.4830   32.4600 O.2   108  SER108     -0.2714
    102  CB       -12.5980   -7.2590   34.9370 C.3   108  SER108      0.2130
    103  OG       -11.6310   -8.2820   34.7580 O.3   108  SER108     -0.2179
    104  N        -11.9540   -7.6240   31.7370 N.am  109  VAL109     -0.1977
    105  CA       -10.9910   -7.4760   30.6250 C.3   109  VAL109      0.1596
    106  C        -11.6440   -7.0420   29.3090 C.2   109  VAL109      0.2287
    107  O        -11.0670   -7.2110   28.2310 O.2   109  VAL109     -0.2864
    108  CB       -10.1790   -8.7840   30.3720 C.3   109  VAL109      0.0276
    109  CG1       -9.2000   -9.0570   31.5160 C.3   109  VAL109      0.0022
    110  CG2      -11.1050   -9.9850   30.1220 C.3   109  VAL109      0.0022
    111  N        -11.6990   -8.4370   24.1590 N.3   213  LYS213     -0.1231
    112  CA       -11.4180   -9.1680   25.3820 C.3   213  LYS213      0.1693
    113  C         -9.9040   -9.3120   25.5580 C.2   213  LYS213      0.2592
    114  O         -9.2610  -10.1130   24.8600 O.2   213  LYS213     -0.2718
    115  CB       -12.0950  -10.5350   25.3640 C.3   213  LYS213      0.0285
    116  CG       -12.1560  -11.2070   26.7180 C.3   213  LYS213      0.0035
    117  CD       -12.3850  -12.7060   26.6010 C.3   213  LYS213      0.0206
    118  CE       -12.9300  -13.2800   27.9080 C.3   213  LYS213      0.1093
    119  NZ       -13.3230  -14.7100   27.7860 N.3   213  LYS213     -0.1314
    120  N         -9.3410   -8.5410   26.4910 N.am  214  ILE214     -0.1966
    121  CA        -7.8900   -8.5230   26.7100 C.3   214  ILE214      0.1727
    122  C         -7.3980   -9.7960   27.4200 C.2   214  ILE214      0.2616
    123  O         -7.5210   -9.9390   28.6430 O.2   214  ILE214     -0.2715
    124  CB        -7.4410   -7.2250   27.4400 C.3   214  ILE214      0.0290
    125  CG1       -7.8230   -5.9940   26.6080 C.3   214  ILE214      0.0022
    126  CG2       -5.9380   -7.2390   27.7200 C.3   214  ILE214      0.0023
    127  CD1       -7.8760   -4.6980   27.3860 C.3   214  ILE214      0.0001
    128  N         -6.8500  -10.7200   26.6300 N.am  215  THR215     -0.1951
    129  CA        -6.3750  -12.0120   27.1340 C.3   215  THR215      0.1897
    130  C         -4.8890  -12.2370   26.8400 C.2   215  THR215      0.2313
    131  O         -4.1410  -12.6650   27.7150 O.2   215  THR215     -0.2863
    132  CB        -7.2170  -13.1870   26.5680 C.3   215  THR215      0.1794
    133  OG1       -8.5690  -13.0710   27.0280 O.3   215  THR215     -0.2208
    134  CG2       -6.6570  -14.5450   27.0080 C.3   215  THR215      0.0378
@<TRIPOS>BOND
     1   111   112    1
     2   114   113    2
     3   115   112    1
     4   115   116    1
     5   112   113    1
     6   113   120   am
     7   120   121    1
     8   132   134    1
     9   132   133    1
    10   132   129    1
    11   117   116    1
    12   117   118    1
    13   125   127    1
    14   125   124    1
    15   128   129    1
    16   128   122   am
    17   121   122    1
    18   121   124    1
    19   130   129    1
    20   130   131    2
    21   122   123    2
    22   124   126    1
    23   119   118    1
    24   107   106    2
    25    97    95   ar
    26   106   105    1
    27   110   108    1
    28    95    94    1
    29    95    96   ar
    30   108   105    1
    31   108   109    1
    32    94    91    1
    33   105   104    1
    34    82    81    1
    35    93    92    2
    36    90    91    1
    37   104   100   am
    38    91    92    1
    39    81    83    1
    40    81    80    2
    41    92    98   am
    42   101   100    2
    43   100    99    1
    44    35    33    1
    45    79    80    1
    46    79    78    1
    47    33    30    1
    48    33    34    1
    49    31    32    2
    50    31    30    1
    51    37    36    1
    52    37    38    1
    53    37    40    1
    54    98    99    1
    55    30    29    1
    56    36    42    1
    57    38    39    2
    58    99   102    1
    59    42    41    1
    60    78    77    1
    61    41    40    1
    62    43    44    1
    63    44    47    1
    64    44    45    1
    65   103   102    1
    66    77    74    1
    67    50    49    2
    68     4     3    2
    69    47    48    1
    70    45    46    2
    71     8     6    1
    72     5     6    1
    73     5     2    1
    74     6     7    1
    75    49    48    1
    76    49    51   am
    77    74    73    1
    78    74    75    1
    79    73    67   am
    80     3     2    1
    81     3     9   am
    82     1     2    1
    83    69    66    1
    84    69    70    1
    85    75    76    2
    86    71    70   ar
    87    66    67    1
    88    66    65    1
    89    70    72   ar
    90    67    68    2
    91     9    10    1
    92    10    13    1
    93    10    11    1
    94    21    20    2
    95    24    25    2
    96    24    23    1
    97    23    22    1
    98    23    26    1
    99    63    62    2
   100    14    11    1
   101    14    15    2
   102    11    12    2
   103    20    22   am
   104    20    19    1
   105    65    62   am
   106    19    18    1
   107    18    16   am
   108    62    61    1
   109    16    15    1
   110    16    17    2
   111    26    28    1
   112    26    27    1
   113    89    88    1
   114    88    85    1
   115    55    54    2
   116    84    85    1
   117    61    64    1
   118    61    60    1
   119    86    85    1
   120    86    87    2
   121    59    58    2
   122    52    53    1
   123    54    53    1
   124    60    58   am
   125    58    57    1
   126    56    57    1
