@<TRIPOS>MOLECULE
tmp/2vslA00.pdb
 147 146 0 0 0
SMALL
GASTEIGER

@<TRIPOS>ATOM
      1  N         23.4870    8.0080   31.3620 N.3     1  PHE1       -0.1241
      2  CA        22.3470    8.7210   30.7150 C.3     1  PHE1        0.1605
      3  C         22.3250   10.2060   31.0680 C.2     1  PHE1        0.2264
      4  O         22.3580   10.5780   32.2420 O.2     1  PHE1       -0.2867
      5  CB        21.0140    8.0960   31.1380 C.3     1  PHE1        0.0534
      6  CG        19.8060    8.7750   30.5410 C.ar    1  PHE1       -0.0203
      7  CD1       19.5230    8.6580   29.1810 C.ar    1  PHE1       -0.0042
      8  CD2       18.9510    9.5300   31.3400 C.ar    1  PHE1       -0.0042
      9  CE1       18.4040    9.2810   28.6260 C.ar    1  PHE1       -0.0003
     10  CE2       17.8310   10.1560   30.7940 C.ar    1  PHE1       -0.0003
     11  CZ        17.5570   10.0300   29.4350 C.ar    1  PHE1       -0.0000
     12  N          8.3940    6.6410   19.4580 N.3    43  LEU43      -0.1245
     13  CA         8.4560    5.3020   20.0210 C.3    43  LEU43       0.1561
     14  C          7.1470    4.5550   19.7700 C.2    43  LEU43       0.2260
     15  O          7.0780    3.3420   19.9530 O.2    43  LEU43      -0.2867
     16  CB         8.7020    5.3480   21.5360 C.3    43  LEU43       0.0270
     17  CG         9.9520    6.0380   22.0910 C.3    43  LEU43       0.0019
     18  CD1       10.2130    5.5200   23.4960 C.3    43  LEU43       0.0001
     19  CD2       11.1570    5.7570   21.2070 C.3    43  LEU43       0.0001
     20  N          5.7730   10.1130   23.0810 N.3    48  LYS48      -0.1231
     21  CA         7.1540    9.8870   23.5010 C.3    48  LYS48       0.1693
     22  C          8.0940    9.8190   22.3040 C.2    48  LYS48       0.2592
     23  O          7.8100    9.1400   21.3140 O.2    48  LYS48      -0.2718
     24  CB         7.2820    8.5790   24.2780 C.3    48  LYS48       0.0285
     25  CG         6.7500    8.6200   25.6850 C.3    48  LYS48       0.0035
     26  CD         7.1010    7.3270   26.3960 C.3    48  LYS48       0.0206
     27  CE         6.7600    7.3860   27.8670 C.3    48  LYS48       0.1093
     28  NZ         7.1850    6.1300   28.5510 N.3    48  LYS48      -0.1314
     29  N          9.2100   10.5350   22.3940 N.am   49  VAL49      -0.1966
     30  CA        10.2050   10.5210   21.3280 C.3    49  VAL49       0.1727
     31  C         11.5800   10.4390   21.9730 C.2    49  VAL49       0.2616
     32  O         11.7380   10.7470   23.1530 O.2    49  VAL49      -0.2715
     33  CB        10.1440   11.7960   20.4460 C.3    49  VAL49       0.0290
     34  CG1        8.7870   11.9080   19.7860 C.3    49  VAL49       0.0023
     35  CG2       10.4460   13.0400   21.2890 C.3    49  VAL49       0.0023
     36  N         12.5670   10.0000   21.2030 N.am   50  LYS50      -0.1977
     37  CA        13.9260    9.9030   21.7080 C.3    50  LYS50       0.1596
     38  C         14.9030   10.3660   20.6480 C.2    50  LYS50       0.2287
     39  O         14.6470   10.2280   19.4460 O.2    50  LYS50      -0.2864
     40  CB        14.2630    8.4600   22.1110 C.3    50  LYS50       0.0298
     41  CG        13.6400    8.0300   23.4250 C.3    50  LYS50       0.0038
     42  CD        13.9460    6.5760   23.7500 C.3    50  LYS50       0.0206
     43  CE        15.4300    6.3440   23.9180 C.3    50  LYS50       0.1093
     44  NZ        15.6940    5.0430   24.5890 N.3    50  LYS50      -0.1314
     45  N         15.0300   11.1880   26.0590 N.3    57  GLY57      -0.1210
     46  CA        13.6120   11.0800   25.7520 C.3    57  GLY57       0.1956
     47  C         12.7760   12.2680   26.1820 C.2    57  GLY57       0.2612
     48  O         13.0480   12.8990   27.2030 O.2    57  GLY57      -0.2717
     49  N         11.7580   12.5820   25.3890 N.am   58  LEU58      -0.1965
     50  CA        10.8600   13.6910   25.6890 C.3    58  LEU58       0.1728
     51  C          9.4180   13.3210   25.3700 C.2    58  LEU58       0.2617
     52  O          9.1390   12.7150   24.3320 O.2    58  LEU58      -0.2715
     53  CB        11.2480   14.9320   24.8820 C.3    58  LEU58       0.0311
     54  CG        12.5620   15.5990   25.2930 C.3    58  LEU58       0.0022
     55  CD1       12.8870   16.7200   24.3100 C.3    58  LEU58       0.0001
     56  CD2       12.4430   16.1360   26.7220 C.3    58  LEU58       0.0001
     57  N          8.5100   13.6970   26.2670 N.am   59  THR59      -0.1937
     58  CA         7.0880   13.4200   26.1020 C.3    59  THR59       0.2028
     59  C          6.2710   14.5850   26.6750 C.2    59  THR59       0.2642
     60  O          6.8400   15.5660   27.1540 O.2    59  THR59      -0.2714
     61  CB         6.7020   12.1030   26.8190 C.3    59  THR59       0.1808
     62  OG1        5.3580   11.7530   26.4750 O.3    59  THR59      -0.2208
     63  CG2        6.8150   12.2550   28.3330 C.3    59  THR59       0.0379
     64  N          4.9460   14.4860   26.6220 N.am   60  ASP60      -0.1957
     65  CA         4.0880   15.5520   27.1390 C.3    60  ASP60       0.1840
     66  C          4.4500   16.8770   26.4690 C.2    60  ASP60       0.2622
     67  O          4.7280   17.8690   27.1410 O.2    60  ASP60      -0.2715
     68  CB         4.2690   15.6840   28.6540 C.3    60  ASP60       0.1450
     69  CG         3.8030   14.4530   29.4070 C.2    60  ASP60       0.3671
     70  OD1        4.1570   14.3150   30.5980 O.co2  60  ASP60      -0.2456
     71  OD2        3.0750   13.6250   28.8120 O.co2  60  ASP60      -0.2456
     72  N          4.4490   16.8800   25.1420 N.am   61  TRP61      -0.1960
     73  CA         4.7840   18.0700   24.3750 C.3    61  TRP61       0.1771
     74  C          3.6600   19.0960   24.3640 C.2    61  TRP61       0.2619
     75  O          2.4820   18.7450   24.4230 O.2    61  TRP61      -0.2715
     76  CB         5.1070   17.7000   22.9250 C.3    61  TRP61       0.0590
     77  CG         6.3590   16.9110   22.7520 C.ar   61  TRP61       0.0006
     78  CD1        6.5040   15.5570   22.8670 C.ar   61  TRP61       0.0946
     79  CD2        7.6560   17.4300   22.4490 C.ar   61  TRP61       0.0152
     80  NE1        7.8140   15.2010   22.6520 N.ar   61  TRP61      -0.2442
     81  CE2        8.5430   16.3340   22.3940 C.ar   61  TRP61       0.0810
     82  CE3        8.1560   18.7190   22.2200 C.ar   61  TRP61       0.0012
     83  CZ2        9.9040   16.4860   22.1180 C.ar   61  TRP61       0.0191
     84  CZ3        9.5090   18.8710   21.9470 C.ar   61  TRP61       0.0001
     85  CH2       10.3680   17.7590   21.8980 C.ar   61  TRP61       0.0015
     86  N          4.0340   20.3680   24.2840 N.am   62  LYS62      -0.1977
     87  CA         3.0550   21.4400   24.2180 C.3    62  LYS62       0.1596
     88  C          2.9510   21.8200   22.7470 C.2    62  LYS62       0.2287
     89  O          3.9150   21.6870   21.9940 O.2    62  LYS62      -0.2864
     90  CB         3.5040   22.6400   25.0510 C.3    62  LYS62       0.0298
     91  CG         3.8470   22.2940   26.4910 C.3    62  LYS62       0.0038
     92  CD         2.7200   21.5330   27.1750 C.3    62  LYS62       0.0206
     93  CE         1.4360   22.3520   27.2250 C.3    62  LYS62       0.1093
     94  NZ         0.3560   21.6540   27.9820 N.3    62  LYS62      -0.1314
     95  N          5.6850   24.2910   21.4280 N.3    65  GLU65      -0.1245
     96  CA         7.0520   24.0100   21.8410 C.3    65  GLU65       0.1567
     97  C          7.9930   23.7860   20.6700 C.2    65  GLU65       0.2260
     98  O          7.5900   23.3080   19.6080 O.2    65  GLU65      -0.2867
     99  CB         7.1000   22.7900   22.7560 C.3    65  GLU65       0.0388
    100  CG         6.6500   23.0750   24.1620 C.3    65  GLU65       0.1160
    101  CD         6.9800   21.9470   25.1100 C.2    65  GLU65       0.3649
    102  OE1        6.3950   20.8530   24.9680 O.co2  65  GLU65      -0.2457
    103  OE2        7.8360   22.1580   25.9940 O.co2  65  GLU65      -0.2457
    104  N         13.8530   22.1970   23.5120 N.3    70  GLN70      -0.1245
    105  CA        13.6640   21.2020   24.5610 C.3    70  GLN70       0.1566
    106  C         14.8440   20.2370   24.5780 C.2    70  GLN70       0.2260
    107  O         15.2510   19.7490   25.6350 O.2    70  GLN70      -0.2867
    108  CB        12.3550   20.4360   24.3290 C.3    70  GLN70       0.0367
    109  CG        11.1140   21.2670   24.6160 C.3    70  GLN70       0.0905
    110  CD        11.1160   21.8150   26.0280 C.2    70  GLN70       0.2608
    111  OE1       11.1680   21.0600   27.0020 O.2    70  GLN70      -0.2717
    112  NE2       11.0670   23.1390   26.1500 N.am   70  GLN70      -0.0878
    113  N         17.5550   22.0830   26.3350 N.3    73  LYS73      -0.1231
    114  CA        17.2120   22.2600   27.7360 C.3    73  LYS73       0.1693
    115  C         17.5270   21.0260   28.5800 C.2    73  LYS73       0.2592
    116  O         18.1830   21.1270   29.6180 O.2    73  LYS73      -0.2718
    117  CB        15.7290   22.6000   27.8770 C.3    73  LYS73       0.0285
    118  CG        15.2710   22.7180   29.3230 C.3    73  LYS73       0.0035
    119  CD        13.7920   23.0720   29.4220 C.3    73  LYS73       0.0206
    120  CE        13.3310   23.1080   30.8790 C.3    73  LYS73       0.1093
    121  NZ        11.8820   23.4600   30.9970 N.3    73  LYS73      -0.1314
    122  N         17.0780   19.8590   28.1230 N.am   74  TRP74      -0.1962
    123  CA        17.2750   18.6210   28.8720 C.3    74  TRP74       0.1771
    124  C         18.5160   17.7940   28.5900 C.2    74  TRP74       0.2619
    125  O         18.9890   17.0780   29.4720 O.2    74  TRP74      -0.2715
    126  CB        16.0400   17.7270   28.7110 C.3    74  TRP74       0.0590
    127  CG        14.8410   18.3440   29.3260 C.ar   74  TRP74       0.0006
    128  CD1       13.8100   18.9620   28.6830 C.ar   74  TRP74       0.0946
    129  CD2       14.5860   18.4810   30.7240 C.ar   74  TRP74       0.0152
    130  NE1       12.9260   19.4810   29.5990 N.ar   74  TRP74      -0.2442
    131  CE2       13.3810   19.1990   30.8610 C.ar   74  TRP74       0.0810
    132  CE3       15.2670   18.0680   31.8800 C.ar   74  TRP74       0.0012
    133  CZ2       12.8350   19.5140   32.1080 C.ar   74  TRP74       0.0191
    134  CZ3       14.7270   18.3830   33.1200 C.ar   74  TRP74       0.0001
    135  CH2       13.5210   19.1010   33.2220 C.ar   74  TRP74       0.0015
    136  N         19.0480   17.8840   27.3770 N.am   75  TYR75      -0.1974
    137  CA        20.2200   17.0940   27.0210 C.3    75  TYR75       0.1639
    138  C         21.3260   17.9400   26.3810 C.2    75  TYR75       0.2290
    139  O         21.7410   17.6900   25.2500 O.2    75  TYR75      -0.2864
    140  CB        19.7760   15.9660   26.0830 C.3    75  TYR75       0.0560
    141  CG        18.6260   15.1670   26.6720 C.ar   75  TYR75      -0.0198
    142  CD1       17.3230   15.3110   26.1920 C.ar   75  TYR75      -0.0009
    143  CD2       18.8340   14.3140   27.7570 C.ar   75  TYR75      -0.0009
    144  CE1       16.2510   14.6230   26.7850 C.ar   75  TYR75       0.0417
    145  CE2       17.7710   13.6260   28.3570 C.ar   75  TYR75       0.0417
    146  CZ        16.4870   13.7860   27.8670 C.ar   75  TYR75       0.1957
    147  OH        15.4430   13.1140   28.4620 O.3    75  TYR75      -0.2866
@<TRIPOS>BOND
     1    39    38    2
     2    12    13    1
     3    98    97    2
     4    14    15    2
     5    14    13    1
     6    34    33    1
     7    13    16    1
     8    33    35    1
     9    33    30    1
    10    38    37    1
    11    97    96    1
    12    36    37    1
    13    36    31   am
    14    19    17    1
    15    23    22    2
    16    30    31    1
    17    30    29    1
    18    95    96    1
    19    16    17    1
    20    37    40    1
    21    96    99    1
    22    85    84   ar
    23    85    83   ar
    24    84    82   ar
    25    31    32    2
    26    89    88    2
    27    17    18    1
    28    40    41    1
    29    83    81   ar
    30    82    79   ar
    31    22    29   am
    32    22    21    1
    33    81    79   ar
    34    81    80   ar
    35    79    77   ar
    36    80    78   ar
    37    88    87    1
    38    77    78   ar
    39    77    76    1
    40    99   100    1
    41    76    73    1
    42    20    21    1
    43    41    42    1
    44    21    24    1
    45   104   105    1
    46    42    43    1
    47    43    44    1
    48   100   101    1
    49    87    86    1
    50    87    90    1
    51    24    25    1
    52    86    74   am
    53    55    54    1
    54   108   105    1
    55   108   109    1
    56    52    51    2
    57    74    73    1
    58    74    75    2
    59    73    72    1
    60   105   106    1
    61   106   107    2
    62   109   110    1
    63    53    54    1
    64    53    50    1
    65   102   101   ar
    66    90    91    1
    67   101   103   ar
    68    72    66   am
    69   139   138    2
    70    54    56    1
    71    51    50    1
    72    51    57   am
    73    49    50    1
    74    49    47   am
    75    25    26    1
    76    46    45    1
    77    46    47    1
    78   110   112   am
    79   110   111    2
    80   140   141    1
    81   140   137    1
    82    58    57    1
    83    58    59    1
    84    58    61    1
    85    47    48    2
    86   142   141   ar
    87   142   144   ar
    88   113   114    1
    89   138   137    1
    90    26    27    1
    91    66    65    1
    92    66    67    2
    93    62    61    1
    94    91    92    1
    95    64    59   am
    96    64    65    1
    97   141   143   ar
    98    59    60    2
    99   144   146   ar
   100    61    63    1
   101   137   136    1
   102    65    68    1
   103    92    93    1
   104    93    94    1
   105   136   124   am
   106   114   117    1
   107   114   115    1
   108   143   145   ar
   109    27    28    1
   110   146   145   ar
   111   146   147    1
   112   117   118    1
   113   122   115   am
   114   122   123    1
   115   115   116    2
   116   124   123    1
   117   124   125    2
   118     9     7   ar
   119     9    11   ar
   120    68    69    1
   121   128   127   ar
   122   128   130   ar
   123   126   123    1
   124   126   127    1
   125    71    69   ar
   126     7     6   ar
   127   118   119    1
   128   127   129   ar
   129    69    70   ar
   130   119   120    1
   131    11    10   ar
   132   130   131   ar
   133     6     5    1
   134     6     8   ar
   135     2     3    1
   136     2     5    1
   137     2     1    1
   138   129   131   ar
   139   129   132   ar
   140    10     8   ar
   141   131   133   ar
   142   120   121    1
   143     3     4    2
   144   132   134   ar
   145   133   135   ar
   146   134   135   ar
