@<TRIPOS>MOLECULE
tmp/2vsnA00.pdb
 175 170 0 0 0
SMALL
GASTEIGER

@<TRIPOS>ATOM
      1  N        -26.4460   -6.3040   12.0780 N.3   131  PHE131     -0.1241
      2  CA       -25.2390   -6.3500   11.2820 C.3   131  PHE131      0.1605
      3  C        -24.6130   -4.9690   11.1700 C.2   131  PHE131      0.2264
      4  O        -23.3840   -4.8270   11.1720 O.2   131  PHE131     -0.2867
      5  CB       -25.5390   -6.8880    9.8940 C.3   131  PHE131      0.0534
      6  CG       -24.3290   -6.9890    9.0330 C.ar  131  PHE131     -0.0203
      7  CD1      -23.3530   -7.9390    9.3060 C.ar  131  PHE131     -0.0042
      8  CD2      -24.1210   -6.0880    7.9870 C.ar  131  PHE131     -0.0042
      9  CE1      -22.1780   -7.9910    8.5520 C.ar  131  PHE131     -0.0003
     10  CE2      -22.9480   -6.1300    7.2260 C.ar  131  PHE131     -0.0003
     11  CZ       -21.9750   -7.0820    7.5100 C.ar  131  PHE131     -0.0000
     12  N        -19.1180  -15.4370   -2.7630 N.3   184  HIS184     -0.1227
     13  CA       -19.5650  -14.6830   -1.6100 C.3   184  HIS184      0.1737
     14  C        -18.7770  -15.3060   -0.4570 C.2   184  HIS184      0.2438
     15  O        -18.4320  -16.4840   -0.5080 O.2   184  HIS184     -0.2733
     16  CB       -21.0760  -14.8730   -1.4590 C.3   184  HIS184      0.0758
     17  CG       -21.6550  -14.2680   -0.2150 C.ar  184  HIS184      0.0818
     18  ND1      -21.3490  -14.7250    1.0520 N.ar  184  HIS184     -0.2268
     19  CD2      -22.5900  -13.3000   -0.0490 C.ar  184  HIS184      0.1154
     20  CE1      -22.0760  -14.0710    1.9420 C.ar  184  HIS184      0.1986
     21  NE2      -22.8390  -13.2020    1.3010 N.ar  184  HIS184     -0.2212
     22  N        -18.4670  -14.5290    0.5850 N.am  185  PRO185     -0.2729
     23  CA       -17.7020  -15.0650    1.7150 C.3   185  PRO185      0.1401
     24  C        -18.0950  -16.4650    2.1730 C.2   185  PRO185      0.2269
     25  O        -17.2490  -17.3660    2.2300 O.2   185  PRO185     -0.2865
     26  CB       -17.9270  -14.0270    2.8020 C.3   185  PRO185      0.0296
     27  CG       -17.9950  -12.7750    2.0240 C.3   185  PRO185      0.0237
     28  CD       -18.8600  -13.1350    0.8390 C.3   185  PRO185      0.0939
     29  N        -17.2160  -19.1830   -0.1950 N.3   188  LEU188     -0.1245
     30  CA       -15.7640  -19.1710   -0.2850 C.3   188  LEU188      0.1561
     31  C        -15.0920  -19.8390    0.9210 C.2   188  LEU188      0.2260
     32  O        -14.0530  -20.4880    0.7800 O.2   188  LEU188     -0.2867
     33  CB       -15.2870  -17.7250   -0.4290 C.3   188  LEU188      0.0270
     34  CG       -13.8040  -17.4200   -0.6100 C.3   188  LEU188      0.0019
     35  CD1      -13.2270  -18.1490   -1.8210 C.3   188  LEU188      0.0001
     36  CD2      -13.6610  -15.9250   -0.7780 C.3   188  LEU188      0.0001
     37  N         -7.5030   -4.3830    2.9820 N.3   349  PHE349     -0.1241
     38  CA        -8.5310   -4.5130    1.9590 C.3   349  PHE349      0.1605
     39  C         -9.9140   -4.7140    2.5480 C.2   349  PHE349      0.2264
     40  O        -10.7460   -5.3690    1.9390 O.2   349  PHE349     -0.2867
     41  CB        -8.2040   -5.6910    1.0360 C.3   349  PHE349      0.0534
     42  CG        -7.0140   -5.4650    0.1550 C.ar  349  PHE349     -0.0203
     43  CD1       -6.2210   -6.5250   -0.2370 C.ar  349  PHE349     -0.0042
     44  CD2       -6.6930   -4.1970   -0.2950 C.ar  349  PHE349     -0.0042
     45  CE1       -5.1220   -6.3220   -1.0670 C.ar  349  PHE349     -0.0003
     46  CE2       -5.5970   -3.9890   -1.1260 C.ar  349  PHE349     -0.0003
     47  CZ        -4.8110   -5.0530   -1.5100 C.ar  349  PHE349     -0.0000
     48  N        -13.7920   -3.8770    3.9300 N.3   351  ASN351     -0.1240
     49  CA       -14.9420   -3.1340    3.4430 C.3   351  ASN351      0.1653
     50  C        -14.9020   -1.7280    4.0640 C.2   351  ASN351      0.2266
     51  O        -14.4520   -1.5630    5.1970 O.2   351  ASN351     -0.2867
     52  CB       -16.2180   -3.8590    3.8490 C.3   351  ASN351      0.1155
     53  CG       -17.1540   -4.0520    2.6940 C.2   351  ASN351      0.2627
     54  OD1      -17.4500   -3.1030    1.9640 O.2   351  ASN351     -0.2716
     55  ND2      -17.6290   -5.2840    2.5100 N.am  351  ASN351     -0.0877
     56  N        -17.0370    0.2690    5.5410 N.3   353  TYR353     -0.1227
     57  CA       -17.6570    0.5160    6.8390 C.3   353  TYR353      0.1736
     58  C        -16.7880    0.0800    8.0290 C.2   353  TYR353      0.2595
     59  O        -17.0110    0.5110    9.1600 O.2   353  TYR353     -0.2718
     60  CB       -19.0460   -0.1320    6.9160 C.3   353  TYR353      0.0548
     61  CG       -19.1130   -1.5910    6.5400 C.ar  353  TYR353     -0.0200
     62  CD1      -19.4880   -1.9840    5.2580 C.ar  353  TYR353     -0.0009
     63  CD2      -18.8240   -2.5840    7.4790 C.ar  353  TYR353     -0.0009
     64  CE1      -19.5770   -3.3450    4.9150 C.ar  353  TYR353      0.0417
     65  CE2      -18.9060   -3.9410    7.1550 C.ar  353  TYR353      0.0417
     66  CZ       -19.2820   -4.3220    5.8730 C.ar  353  TYR353      0.1957
     67  OH       -19.3480   -5.6720    5.5700 O.3   353  TYR353     -0.2866
     68  N        -15.7890   -0.7600    7.7720 N.am  354  LYS354     -0.1980
     69  CA       -14.8690   -1.2200    8.8140 C.3   354  LYS354      0.1596
     70  C        -13.7330   -0.1990    8.9930 C.2   354  LYS354      0.2287
     71  O        -12.9480   -0.2660    9.9520 O.2   354  LYS354     -0.2864
     72  CB       -14.2620   -2.5670    8.4310 C.3   354  LYS354      0.0298
     73  CG       -15.2420   -3.7020    8.3610 C.3   354  LYS354      0.0038
     74  CD       -14.5200   -4.9710    7.9980 C.3   354  LYS354      0.0206
     75  CE       -15.4530   -6.1460    7.9810 C.3   354  LYS354      0.1093
     76  NZ       -14.7100   -7.3750    7.6180 N.3   354  LYS354     -0.1314
     77  N         -8.9110   -0.9360   -0.2820 N.3   378  LEU378     -0.1245
     78  CA        -9.9160   -1.3800   -1.2290 C.3   378  LEU378      0.1561
     79  C        -10.7930   -0.1740   -1.5200 C.2   378  LEU378      0.2260
     80  O        -11.4240    0.3730   -0.6110 O.2   378  LEU378     -0.2867
     81  CB       -10.7700   -2.5100   -0.6430 C.3   378  LEU378      0.0270
     82  CG       -11.8320   -3.0680   -1.6010 C.3   378  LEU378      0.0019
     83  CD1      -11.1520   -3.6520   -2.8370 C.3   378  LEU378      0.0001
     84  CD2      -12.6480   -4.1340   -0.9070 C.3   378  LEU378      0.0001
     85  N         -7.4650    0.1150   -4.6480 N.3   405  MET405     -0.1245
     86  CA        -7.6870   -0.9630   -5.6100 C.3   405  MET405      0.1570
     87  C         -9.1740   -1.1750   -5.8440 C.2   405  MET405      0.2261
     88  O         -9.9660   -1.1610   -4.9020 O.2   405  MET405     -0.2867
     89  CB        -7.0570   -2.2650   -5.1040 C.3   405  MET405      0.0387
     90  CG        -7.5130   -3.5110   -5.8390 C.3   405  MET405      0.0595
     91  SD        -6.8670   -4.9960   -5.0550 S.3   405  MET405     -0.1393
     92  CE        -8.0340   -5.2290   -3.6680 C.3   405  MET405      0.0692
     93  N        -12.6020   -3.2740   -6.7200 N.3   407  LYS407     -0.1231
     94  CA       -13.0000   -4.6380   -6.3810 C.3   407  LYS407      0.1693
     95  C        -12.7400   -5.5070   -7.6310 C.2   407  LYS407      0.2591
     96  O        -13.1810   -5.1760   -8.7420 O.2   407  LYS407     -0.2718
     97  CB       -14.4840   -4.6730   -5.9860 C.3   407  LYS407      0.0285
     98  CG       -15.1020   -6.0790   -5.8800 C.3   407  LYS407      0.0035
     99  CD       -15.1990   -6.6200   -4.4430 C.3   407  LYS407      0.0206
    100  CE       -16.3600   -6.0000   -3.6600 C.3   407  LYS407      0.1093
    101  NZ       -17.7090   -6.2520   -4.2730 N.3   407  LYS407     -0.1314
    102  N        -12.0050   -6.6000   -7.4440 N.am  408  LEU408     -0.1980
    103  CA       -11.6730   -7.5020   -8.5390 C.3   408  LEU408      0.1596
    104  C        -12.2080   -8.9100   -8.2870 C.2   408  LEU408      0.2287
    105  O        -12.5860   -9.2490   -7.1640 O.2   408  LEU408     -0.2864
    106  CB       -10.1590   -7.6020   -8.6840 C.3   408  LEU408      0.0297
    107  CG        -9.3170   -6.3860   -9.0490 C.3   408  LEU408      0.0022
    108  CD1       -7.9010   -6.5670   -8.4870 C.3   408  LEU408      0.0001
    109  CD2       -9.2980   -6.2120  -10.5530 C.3   408  LEU408      0.0001
    110  N        -12.3010  -12.5870   -7.2630 N.3   410  HIS410     -0.1241
    111  CA       -11.4750  -13.2370   -6.2470 C.3   410  HIS410      0.1621
    112  C        -10.0900  -13.7040   -6.6730 C.2   410  HIS410      0.2264
    113  O         -9.1000  -13.3460   -6.0500 O.2   410  HIS410     -0.2867
    114  CB       -12.2110  -14.4070   -5.6110 C.3   410  HIS410      0.0745
    115  CG       -11.5870  -14.8750   -4.3330 C.ar  410  HIS410      0.0817
    116  ND1      -11.6240  -14.1340   -3.1700 N.ar  410  HIS410     -0.2268
    117  CD2      -10.8980  -16.0040   -4.0360 C.ar  410  HIS410      0.1154
    118  CE1      -10.9900  -14.7860   -2.2110 C.ar  410  HIS410      0.1986
    119  NE2      -10.5410  -15.9240   -2.7100 N.ar  410  HIS410     -0.2212
    120  N         -7.9030  -10.6560   -7.1930 N.3   413  TYR413     -0.1241
    121  CA        -7.7370   -9.9260   -5.9450 C.3   413  TYR413      0.1605
    122  C         -6.7490  -10.6790   -5.0480 C.2   413  TYR413      0.2264
    123  O         -5.8470  -10.0790   -4.4670 O.2   413  TYR413     -0.2867
    124  CB        -9.0930   -9.7970   -5.2480 C.3   413  TYR413      0.0534
    125  CG        -9.0810   -9.9630   -3.7290 C.ar  413  TYR413     -0.0201
    126  CD1       -8.6740   -8.9340   -2.8910 C.ar  413  TYR413     -0.0009
    127  CD2       -9.5350  -11.1360   -3.1390 C.ar  413  TYR413     -0.0009
    128  CE1       -8.7290   -9.0670   -1.5050 C.ar  413  TYR413      0.0417
    129  CE2       -9.5900  -11.2790   -1.7630 C.ar  413  TYR413      0.0417
    130  CZ        -9.1900  -10.2460   -0.9500 C.ar  413  TYR413      0.1957
    131  OH        -9.2630  -10.4080    0.4190 O.3   413  TYR413     -0.2866
    132  N        -14.4450   -3.9580   13.9300 N.3   429  TYR429     -0.1241
    133  CA       -14.9120   -5.0130   13.0410 C.3   429  TYR429      0.1605
    134  C        -13.7020   -5.4760   12.2230 C.2   429  TYR429      0.2264
    135  O        -13.3040   -4.8230   11.2620 O.2   429  TYR429     -0.2867
    136  CB       -16.0120   -4.4780   12.1260 C.3   429  TYR429      0.0534
    137  CG       -16.8560   -5.5410   11.4330 C.ar  429  TYR429     -0.0201
    138  CD1      -16.3540   -6.8150   11.1860 C.ar  429  TYR429     -0.0009
    139  CD2      -18.1320   -5.2420   10.9640 C.ar  429  TYR429     -0.0009
    140  CE1      -17.0930   -7.7560   10.4900 C.ar  429  TYR429      0.0417
    141  CE2      -18.8760   -6.1740   10.2630 C.ar  429  TYR429      0.0417
    142  CZ       -18.3540   -7.4280   10.0270 C.ar  429  TYR429      0.1957
    143  OH       -19.0920   -8.3510    9.3110 O.3   429  TYR429     -0.2866
    144  N        -12.4120  -10.6690    8.3490 N.3   432  HIS432     -0.1226
    145  CA       -12.6700  -12.0630    8.6970 C.3   432  HIS432      0.1752
    146  C        -12.2790  -12.9120    7.5100 C.2   432  HIS432      0.2597
    147  O        -11.2170  -13.5240    7.4900 O.2   432  HIS432     -0.2718
    148  CB       -14.1440  -12.2760    9.0490 C.3   432  HIS432      0.0759
    149  CG       -14.5870  -11.5190   10.2640 C.ar  432  HIS432      0.0818
    150  ND1      -15.8680  -11.6010   10.7700 N.ar  432  HIS432     -0.2268
    151  CD2      -13.9180  -10.6620   11.0740 C.ar  432  HIS432      0.1154
    152  CE1      -15.9670  -10.8280   11.8390 C.ar  432  HIS432      0.1986
    153  NE2      -14.7970  -10.2490   12.0460 N.ar  432  HIS432     -0.2212
    154  N        -13.1370  -12.9480    6.5070 N.am  433  THR433     -0.1939
    155  CA       -12.8050  -13.7100    5.3300 C.3   433  THR433      0.2028
    156  C        -11.5670  -13.0550    4.7350 C.2   433  THR433      0.2642
    157  O        -10.6890  -13.7440    4.2350 O.2   433  THR433     -0.2714
    158  CB       -13.9370  -13.6830    4.2960 C.3   433  THR433      0.1808
    159  OG1      -15.0910  -14.3380    4.8270 O.3   433  THR433     -0.2208
    160  CG2      -13.5130  -14.4120    3.0570 C.3   433  THR433      0.0379
    161  N        -11.4930  -11.7250    4.8090 N.am  434  THR434     -0.1950
    162  CA       -10.3480  -10.9860    4.2680 C.3   434  THR434      0.1897
    163  C         -9.0560  -11.2920    5.0180 C.2   434  THR434      0.2313
    164  O         -7.9730  -11.2680    4.4320 O.2   434  THR434     -0.2863
    165  CB       -10.5450   -9.4580    4.3430 C.3   434  THR434      0.1794
    166  OG1      -11.8980   -9.1310    4.0380 O.3   434  THR434     -0.2208
    167  CG2       -9.6520   -8.7670    3.3350 C.3   434  THR434      0.0378
    168  N         -7.8860  -14.5990    3.7860 N.3   437  ASP437     -0.1239
    169  CA        -7.4980  -14.5320    2.3830 C.3   437  ASP437      0.1674
    170  C         -6.0130  -14.1590    2.3820 C.2   437  ASP437      0.2266
    171  O         -5.2020  -14.7920    1.6950 O.2   437  ASP437     -0.2867
    172  CB        -8.2520  -13.4360    1.6250 C.3   437  ASP437      0.1410
    173  CG        -9.6690  -13.8150    1.2780 C.2   437  ASP437      0.3668
    174  OD1       -9.9500  -15.0130    1.0510 O.co2 437  ASP437     -0.2456
    175  OD2      -10.5010  -12.8880    1.2040 O.co2 437  ASP437     -0.2456
@<TRIPOS>BOND
     1   109   107    1
     2   107   106    1
     3   107   108    1
     4    96    95    2
     5   106   103    1
     6   103   104    1
     7   103   102    1
     8   104   105    2
     9    95   102   am
    10    95    94    1
    11   110   111    1
    12   120   121    1
    13    93    94    1
    14   112   111    1
    15   112   113    2
    16    94    97    1
    17   111   114    1
    18    97    98    1
    19   121   124    1
    20   121   122    1
    21    98    99    1
    22    87    86    1
    23    87    88    2
    24    90    89    1
    25    90    91    1
    26   114   115    1
    27    86    89    1
    28    86    85    1
    29   124   125    1
    30    91    92    1
    31   122   123    2
    32    99   100    1
    33   115   117   ar
    34   115   116   ar
    35   101   100    1
    36   117   119   ar
    37   125   127   ar
    38   125   126   ar
    39   116   118   ar
    40   127   129   ar
    41   126   128   ar
    42    83    82    1
    43    12    13    1
    44   119   118   ar
    45    35    34    1
    46   129   130   ar
    47    13    16    1
    48    13    14    1
    49    82    84    1
    50    82    81    1
    51    79    78    1
    52    79    80    2
    53    47    46   ar
    54    47    45   ar
    55   128   130   ar
    56    16    17    1
    57    78    81    1
    58    78    77    1
    59    46    44   ar
    60    45    43   ar
    61   130   131    1
    62    36    34    1
    63    34    33    1
    64    15    14    2
    65    14    22   am
    66    33    30    1
    67    44    42   ar
    68    30    29    1
    69    30    31    1
    70    43    42   ar
    71    17    19   ar
    72    17    18   ar
    73    19    21   ar
    74    42    41    1
    75    22    28    1
    76    22    23    1
    77    32    31    2
    78    28    27    1
    79    41    38    1
    80   174   173   ar
    81    18    20   ar
    82   175   173   ar
    83   173   172    1
    84    21    20   ar
    85   172   169    1
    86   171   170    2
    87    23    24    1
    88    23    26    1
    89    40    39    2
    90    38    39    1
    91    38    37    1
    92    54    53    2
    93    27    26    1
    94    24    25    2
    95   170   169    1
    96   169   168    1
    97    55    53   am
    98    53    52    1
    99   160   158    1
   100   167   165    1
   101    49    52    1
   102    49    48    1
   103    49    50    1
   104   166   165    1
   105    50    51    2
   106   157   156    2
   107   162   165    1
   108   162   161    1
   109   162   163    1
   110   158   159    1
   111   158   155    1
   112   164   163    2
   113   156   161   am
   114   156   155    1
   115    64    62   ar
   116    64    66   ar
   117    62    61   ar
   118   155   154    1
   119    56    57    1
   120    67    66    1
   121    66    65   ar
   122   154   146   am
   123    61    60    1
   124    61    63   ar
   125    57    60    1
   126    57    58    1
   127    65    63   ar
   128    10    11   ar
   129    10     8   ar
   130   147   146    2
   131   146   145    1
   132    11     9   ar
   133    76    75    1
   134    68    58   am
   135    68    69    1
   136    75    74    1
   137     8     6   ar
   138    74    73    1
   139    58    59    2
   140   144   145    1
   141    73    72    1
   142    72    69    1
   143     9     7   ar
   144   145   148    1
   145    69    70    1
   146    70    71    2
   147     6     7   ar
   148     6     5    1
   149   148   149    1
   150   143   142    1
   151     5     2    1
   152   142   141   ar
   153   142   140   ar
   154   141   139   ar
   155   149   150   ar
   156   149   151   ar
   157   140   138   ar
   158   150   152   ar
   159   139   137   ar
   160   151   153   ar
   161     3     4    2
   162     3     2    1
   163   138   137   ar
   164   135   134    2
   165     2     1    1
   166   137   136    1
   167   152   153   ar
   168   136   133    1
   169   134   133    1
   170   133   132    1
