@<TRIPOS>MOLECULE
tmp/2vsoA00.pdb
 130 129 0 0 0
SMALL
GASTEIGER

@<TRIPOS>ATOM
      1  N         21.3460  -14.5000  -18.2710 N.3    13  PHE13      -0.1241
      2  CA        21.4320  -14.7260  -16.8420 C.3    13  PHE13       0.1605
      3  C         22.3780  -15.8750  -16.5290 C.2    13  PHE13       0.2264
      4  O         22.9920  -15.9150  -15.4610 O.2    13  PHE13      -0.2867
      5  CB        20.0540  -15.0170  -16.2500 C.3    13  PHE13       0.0534
      6  CG        19.1360  -13.8170  -16.1960 C.ar   13  PHE13      -0.0203
      7  CD1       17.9830  -13.7710  -16.9730 C.ar   13  PHE13      -0.0042
      8  CD2       19.4110  -12.7460  -15.3480 C.ar   13  PHE13      -0.0042
      9  CE1       17.1300  -12.6810  -16.9230 C.ar   13  PHE13      -0.0003
     10  CE2       18.5600  -11.6510  -15.2860 C.ar   13  PHE13      -0.0003
     11  CZ        17.4220  -11.6150  -16.0780 C.ar   13  PHE13      -0.0000
     12  N          9.9270  -16.1300  -12.0960 N.3    29  TYR29      -0.1227
     13  CA         9.2920  -14.8620  -11.7830 C.3    29  TYR29       0.1736
     14  C          8.8710  -14.2160  -13.0870 C.2    29  TYR29       0.2596
     15  O          8.0480  -13.3060  -13.1060 O.2    29  TYR29      -0.2718
     16  CB        10.2540  -13.9410  -10.9880 C.3    29  TYR29       0.0548
     17  CG         9.6230  -12.6220  -10.5870 C.ar   29  TYR29      -0.0200
     18  CD1        8.6380  -12.5740   -9.6140 C.ar   29  TYR29      -0.0009
     19  CD2        9.9890  -11.4340  -11.2020 C.ar   29  TYR29      -0.0009
     20  CE1        8.0280  -11.3850   -9.2600 C.ar   29  TYR29       0.0417
     21  CE2        9.3820  -10.2350  -10.8550 C.ar   29  TYR29       0.0417
     22  CZ         8.4000  -10.2190   -9.8790 C.ar   29  TYR29       0.1957
     23  OH         7.7740   -9.0400   -9.5280 O.3    29  TYR29      -0.2866
     24  N          9.4430  -14.6970  -14.1860 N.am   30  GLY30      -0.1942
     25  CA         9.1540  -14.1230  -15.4800 C.3    30  GLY30       0.2014
     26  C         10.3450  -13.6320  -16.2860 C.2    30  GLY30       0.2639
     27  O         10.2760  -13.5340  -17.5130 O.2    30  GLY30      -0.2714
     28  N         11.4440  -13.3180  -15.6210 N.am   31  PHE31      -0.1959
     29  CA        12.6060  -12.8380  -16.3530 C.3    31  PHE31       0.1771
     30  C         13.2090  -14.0120  -17.0780 C.2    31  PHE31       0.2619
     31  O         13.2630  -15.1120  -16.5380 O.2    31  PHE31      -0.2715
     32  CB        13.6350  -12.2220  -15.4110 C.3    31  PHE31       0.0574
     33  CG        13.0830  -11.1380  -14.5450 C.ar   31  PHE31      -0.0200
     34  CD1       11.9060  -10.4880  -14.8880 C.ar   31  PHE31      -0.0042
     35  CD2       13.7510  -10.7490  -13.4000 C.ar   31  PHE31      -0.0042
     36  CE1       11.3980   -9.4840  -14.0890 C.ar   31  PHE31      -0.0003
     37  CE2       13.2530   -9.7430  -12.6040 C.ar   31  PHE31      -0.0003
     38  CZ        12.0810   -9.1080  -12.9430 C.ar   31  PHE31      -0.0000
     39  N         13.6450  -13.7910  -18.3060 N.am   32  GLU32      -0.1963
     40  CA        14.2550  -14.8610  -19.0730 C.3    32  GLU32       0.1733
     41  C         15.5640  -14.3600  -19.6170 C.2    32  GLU32       0.2616
     42  O         16.5840  -15.0430  -19.5630 O.2    32  GLU32      -0.2715
     43  CB        13.3460  -15.2660  -20.2240 C.3    32  GLU32       0.0429
     44  CG        11.9250  -15.5860  -19.8190 C.3    32  GLU32       0.1163
     45  CD        11.1290  -16.1660  -20.9800 C.2    32  GLU32       0.3649
     46  OE1       10.0510  -16.7650  -20.7370 O.co2  32  GLU32      -0.2457
     47  OE2       11.5960  -16.0230  -22.1350 O.co2  32  GLU32      -0.2457
     48  N         15.5210  -13.1430  -20.1400 N.am   33  GLU33      -0.1964
     49  CA        16.7180  -12.4670  -20.6000 C.3    33  GLU33       0.1718
     50  C         16.7910  -11.0930  -19.9540 C.2    33  GLU33       0.2458
     51  O         15.7750  -10.4140  -19.8180 O.2    33  GLU33      -0.2730
     52  CB        16.7260  -12.3850  -22.1250 C.3    33  GLU33       0.0428
     53  CG        16.4950  -13.7390  -22.7760 C.3    33  GLU33       0.1163
     54  CD        16.8650  -13.7640  -24.2420 C.2    33  GLU33       0.3649
     55  OE1       17.4660  -12.7770  -24.7180 O.co2  33  GLU33      -0.2457
     56  OE2       16.5590  -14.7730  -24.9170 O.co2  33  GLU33      -0.2457
     57  N         17.9980  -10.6920  -19.5340 N.am   34  PRO34      -0.2716
     58  CA        18.2520   -9.4140  -18.8590 C.3    34  PRO34       0.1536
     59  C         17.9230   -8.2520  -19.7810 C.2    34  PRO34       0.2599
     60  O         18.2320   -8.3320  -20.9660 O.2    34  PRO34      -0.2715
     61  CB        19.7640   -9.4440  -18.5970 C.3    34  PRO34       0.0310
     62  CG        20.1580  -10.8600  -18.7310 C.3    34  PRO34       0.0237
     63  CD        19.2340  -11.4590  -19.7370 C.3    34  PRO34       0.0939
     64  N         17.3120   -7.1950  -19.2550 N.am   35  SER35      -0.1950
     65  CA        17.0630   -6.0150  -20.0660 C.3    35  SER35       0.1924
     66  C         18.3760   -5.2790  -20.2150 C.2    35  SER35       0.2314
     67  O         19.3880   -5.7440  -19.7240 O.2    35  SER35      -0.2863
     68  CB        16.0440   -5.1170  -19.4000 C.3    35  SER35       0.2116
     69  OG        16.5210   -4.6890  -18.1430 O.3    35  SER35      -0.2180
     70  N         20.1660   -4.3580  -16.8220 N.3    38  GLN38      -0.1245
     71  CA        20.5330   -5.6310  -16.1940 C.3    38  GLN38       0.1566
     72  C         21.7240   -6.2850  -16.8810 C.2    38  GLN38       0.2260
     73  O         22.5310   -6.9430  -16.2410 O.2    38  GLN38      -0.2867
     74  CB        19.3460   -6.5990  -16.1620 C.3    38  GLN38       0.0367
     75  CG        18.2140   -6.1260  -15.2940 C.3    38  GLN38       0.0905
     76  CD        16.9730   -6.9900  -15.3950 C.2    38  GLN38       0.2608
     77  OE1       16.8720   -7.8690  -16.2530 O.2    38  GLN38      -0.2717
     78  NE2       16.0150   -6.7370  -14.5130 N.am   38  GLN38      -0.0878
     79  N         12.1240    4.4720  -15.4310 N.3    57  SER57      -0.1202
     80  CA        11.3730    3.3800  -14.8370 C.3    57  SER57       0.2020
     81  C         10.9210    2.4480  -15.9520 C.2    57  SER57       0.2619
     82  O         10.8080    2.8530  -17.1120 O.2    57  SER57      -0.2717
     83  CB        10.1690    3.9110  -14.0660 C.3    57  SER57       0.2103
     84  OG        10.5600    4.9250  -13.1610 O.3    57  SER57      -0.2182
     85  N         10.6820    1.1930  -15.6050 N.am   58  GLY58      -0.1942
     86  CA        10.2610    0.2110  -16.5840 C.3    58  GLY58       0.2014
     87  C         11.3750   -0.2170  -17.5190 C.2    58  GLY58       0.2640
     88  O         11.1130   -0.5760  -18.6690 O.2    58  GLY58      -0.2714
     89  N         12.6120   -0.1760  -17.0320 N.am   59  THR59      -0.1936
     90  CA        13.7700   -0.6520  -17.7810 C.3    59  THR59       0.2028
     91  C         14.3430   -1.9250  -17.1620 C.2    59  THR59       0.2643
     92  O         15.2430   -2.5490  -17.7320 O.2    59  THR59      -0.2714
     93  CB        14.8920    0.4080  -17.8490 C.3    59  THR59       0.1808
     94  OG1       15.2680    0.8000  -16.5200 O.3    59  THR59      -0.2208
     95  CG2       14.4340    1.6290  -18.6130 C.3    59  THR59       0.0379
     96  N         13.8090   -2.3080  -16.0030 N.am   60  GLY60      -0.1939
     97  CA        14.3640   -3.3870  -15.2000 C.3    60  GLY60       0.2014
     98  C         15.2910   -2.9110  -14.0650 C.2    60  GLY60       0.2639
     99  O         16.2500   -3.6110  -13.7040 O.2    60  GLY60      -0.2714
    100  N         15.0260   -1.7280  -13.5010 N.am   61  LYS61      -0.1963
    101  CA        15.8830   -1.1820  -12.4240 C.3    61  LYS61       0.1728
    102  C         15.8430   -2.0300  -11.1700 C.2    61  LYS61       0.2617
    103  O         16.8730   -2.5210  -10.7130 O.2    61  LYS61      -0.2715
    104  CB        15.5260    0.2680  -12.0620 C.3    61  LYS61       0.0311
    105  CG        16.2300    1.3180  -12.9170 C.3    61  LYS61       0.0038
    106  CD        15.4830    2.6310  -12.8700 C.3    61  LYS61       0.0206
    107  CE        14.6150    2.7150  -11.6180 C.3    61  LYS61       0.1093
    108  NZ        14.4720    4.1290  -11.1450 N.3    61  LYS61      -0.1314
    109  N         14.6440   -2.1890  -10.6210 N.am   62  THR62      -0.1937
    110  CA        14.4310   -3.0130   -9.4360 C.3    62  THR62       0.2028
    111  C         15.0390   -4.4090   -9.5440 C.2    62  THR62       0.2642
    112  O         15.5530   -4.9350   -8.5620 O.2    62  THR62      -0.2714
    113  CB        12.9350   -3.1140   -9.0890 C.3    62  THR62       0.1808
    114  OG1       12.4350   -1.8150   -8.7660 O.3    62  THR62      -0.2208
    115  CG2       12.7130   -4.0290   -7.9130 C.3    62  THR62       0.0379
    116  N         14.9900   -5.0030  -10.7300 N.am   63  GLY63      -0.1954
    117  CA        15.5480   -6.3300  -10.9470 C.3    63  GLY63       0.1869
    118  C         17.0730   -6.3670  -11.0130 C.2    63  GLY63       0.2309
    119  O         17.6770   -7.3250  -10.5630 O.2    63  GLY63      -0.2863
    120  N         -3.0550   -7.0320  -19.9840 N.3   286  ARG286     -0.1245
    121  CA        -1.8660   -7.6730  -20.5380 C.3   286  ARG286      0.1563
    122  C         -1.7660   -9.1310  -20.0970 C.2   286  ARG286      0.2260
    123  O         -0.9540   -9.8870  -20.6260 O.2   286  ARG286     -0.2867
    124  CB        -0.5970   -6.8970  -20.1760 C.3   286  ARG286      0.0307
    125  CG        -0.5790   -5.4740  -20.7410 C.3   286  ARG286      0.0489
    126  CD         0.7600   -4.7820  -20.5280 C.3   286  ARG286      0.2205
    127  NE         1.1010   -4.6680  -19.1150 N.pl3 286  ARG286     -0.0865
    128  CZ         1.8620   -5.5390  -18.4630 C.cat 286  ARG286      0.5346
    129  NH1        2.3640   -6.5880  -19.1050 N.pl3 286  ARG286      0.1354
    130  NH2        2.1260   -5.3600  -17.1740 N.pl3 286  ARG286      0.1354
@<TRIPOS>BOND
     1    56    54   ar
     2    55    54   ar
     3    54    53    1
     4    53    52    1
     5    47    45   ar
     6    52    49    1
     7    45    46   ar
     8    45    44    1
     9    60    59    2
    10   125   126    1
    11   125   124    1
    12   123   122    2
    13    49    48    1
    14    49    50    1
    15   121   124    1
    16   121   122    1
    17   121   120    1
    18   126   127    1
    19    43    44    1
    20    43    40    1
    21    66    65    1
    22    66    67    2
    23    48    41   am
    24    65    68    1
    25    65    64    1
    26    50    51    2
    27    50    57   am
    28    59    64   am
    29    59    58    1
    30    63    57    1
    31    63    62    1
    32    41    42    2
    33    41    40    1
    34    57    58    1
    35    68    69    1
    36   127   128    2
    37   129   128    1
    38    40    39    1
    39    58    61    1
    40    62    61    1
    41    88    87    2
    42    95    93    1
    43   128   130    1
    44    39    30   am
    45     1     2    1
    46    93    90    1
    47    93    94    1
    48    90    91    1
    49    90    89    1
    50    92    91    2
    51    87    89   am
    52    87    86    1
    53    27    26    2
    54    91    96   am
    55    82    81    2
    56    30    31    2
    57    30    29    1
    58     7     9   ar
    59     7     6   ar
    60     9    11   ar
    61    72    73    2
    62    72    71    1
    63     2     3    1
    64     2     5    1
    65    70    71    1
    66    86    85    1
    67     3     4    2
    68    29    28    1
    69    29    32    1
    70    26    28   am
    71    26    25    1
    72    77    76    2
    73     5     6    1
    74     6     8   ar
    75    71    74    1
    76    74    75    1
    77    11    10   ar
    78    96    97    1
    79    81    85   am
    80    81    80    1
    81    25    24    1
    82    79    80    1
    83    32    33    1
    84    76    75    1
    85    76    78   am
    86     8    10   ar
    87    97    98    1
    88    34    33   ar
    89    34    36   ar
    90    80    83    1
    91    33    35   ar
    92    24    14   am
    93    36    38   ar
    94    83    84    1
    95    98    99    2
    96    98   100   am
    97   100   101    1
    98    35    37   ar
    99    15    14    2
   100    14    13    1
   101    38    37   ar
   102   105   106    1
   103   105   104    1
   104   106   107    1
   105   101   104    1
   106   101   102    1
   107    12    13    1
   108    13    16    1
   109   107   108    1
   110    19    21   ar
   111    19    17   ar
   112   102   103    2
   113   102   109   am
   114   118   117    1
   115   118   119    2
   116    16    17    1
   117   117   116    1
   118    21    22   ar
   119   116   111   am
   120   109   110    1
   121    17    18   ar
   122    22    23    1
   123    22    20   ar
   124    18    20   ar
   125   111   110    1
   126   111   112    2
   127   110   113    1
   128   113   114    1
   129   113   115    1
