@<TRIPOS>MOLECULE
tmp/2vsrA00.pdb
 234 221 0 0 0
SMALL
GASTEIGER

@<TRIPOS>ATOM
      1  N         26.7300   26.3530    8.4400 N.3    60  ALA60      -0.1245
      2  CA        26.6710   25.4060    9.5500 C.3    60  ALA60       0.1562
      3  C         25.8060   25.8670   10.7210 C.2    60  ALA60       0.2260
      4  O         24.9370   25.1340   11.1860 O.2    60  ALA60      -0.2867
      5  CB        28.0810   25.0980   10.0440 C.3    60  ALA60       0.0290
      6  N         22.0700   26.0110    9.8500 N.3    63  ILE63      -0.1231
      7  CA        21.4810   24.6830    9.7560 C.3    63  ILE63       0.1692
      8  C         21.2740   24.0760   11.1390 C.2    63  ILE63       0.2592
      9  O         20.2560   23.4330   11.3920 O.2    63  ILE63      -0.2718
     10  CB        22.3530   23.7510    8.8860 C.3    63  ILE63       0.0266
     11  CG1       22.3020   24.2230    7.4300 C.3    63  ILE63       0.0019
     12  CG2       21.8680   22.3120    9.0030 C.3    63  ILE63       0.0020
     13  CD1       23.2280   23.4720    6.5000 C.3    63  ILE63       0.0001
     14  N         22.2280   24.3010   12.0360 N.am   64  PHE64      -0.1976
     15  CA        22.1360   23.7700   13.3950 C.3    64  PHE64       0.1639
     16  C         20.9860   24.4080   14.1810 C.2    64  PHE64       0.2290
     17  O         20.2870   23.7340   14.9350 O.2    64  PHE64      -0.2864
     18  CB        23.4560   23.9970   14.1420 C.3    64  PHE64       0.0560
     19  CG        23.4670   23.4370   15.5400 C.ar   64  PHE64      -0.0200
     20  CD1       23.4770   22.0630   15.7530 C.ar   64  PHE64      -0.0042
     21  CD2       23.4590   24.2860   16.6430 C.ar   64  PHE64      -0.0042
     22  CE1       23.4800   21.5400   17.0430 C.ar   64  PHE64      -0.0003
     23  CE2       23.4610   23.7740   17.9350 C.ar   64  PHE64      -0.0003
     24  CZ        23.4710   22.3950   18.1380 C.ar   64  PHE64      -0.0000
     25  N         17.7530   23.1800   13.1480 N.3    67  CYS67      -0.1221
     26  CA        17.7000   21.8370   13.6940 C.3    67  CYS67       0.1808
     27  C         17.2010   21.8830   15.1440 C.2    67  CYS67       0.2601
     28  O         16.4410   21.0160   15.5870 O.2    67  CYS67      -0.2717
     29  CB        19.0960   21.2230   13.6260 C.3    67  CYS67       0.0970
     30  SG        19.2190   19.5960   14.3200 S.3    67  CYS67      -0.0800
     31  N         17.6370   22.9020   15.8770 N.am   68  GLN68      -0.1979
     32  CA        17.2280   23.0720   17.2650 C.3    68  GLN68       0.1601
     33  C         15.7300   23.3120   17.3560 C.2    68  GLN68       0.2287
     34  O         15.0530   22.7190   18.1980 O.2    68  GLN68      -0.2864
     35  CB        17.9620   24.2530   17.9120 C.3    68  GLN68       0.0394
     36  CG        19.3590   23.9370   18.4370 C.3    68  GLN68       0.0908
     37  CD        19.7940   24.9080   19.5270 C.2    68  GLN68       0.2608
     38  OE1       20.1200   26.0650   19.2560 O.2    68  GLN68      -0.2717
     39  NE2       19.7740   24.4430   20.7710 N.am   68  GLN68      -0.0878
     40  N         13.3570   22.4650   15.2550 N.3    70  ARG70      -0.1231
     41  CA        12.6180   21.2540   14.9280 C.3    70  ARG70       0.1694
     42  C         12.6410   20.2880   16.1050 C.2    70  ARG70       0.2592
     43  O         11.6430   19.6360   16.3930 O.2    70  ARG70      -0.2718
     44  CB        13.2050   20.5830   13.6810 C.3    70  ARG70       0.0321
     45  CG        12.6310   19.2010   13.3830 C.3    70  ARG70       0.0489
     46  CD        11.0990   19.2100   13.2640 C.3    70  ARG70       0.2205
     47  NE        10.5540   17.8550   13.3520 N.pl3  70  ARG70      -0.0865
     48  CZ         9.4150   17.5420   13.9600 C.cat  70  ARG70       0.5346
     49  NH1        8.6850   18.4890   14.5380 N.pl3  70  ARG70       0.1354
     50  NH2        9.0160   16.2740   14.0140 N.pl3  70  ARG70       0.1354
     51  N         13.7750   20.2040   16.7920 N.am   71  SER71      -0.1952
     52  CA        13.8870   19.3090   17.9390 C.3    71  SER71       0.1924
     53  C         12.8940   19.7570   19.0070 C.2    71  SER71       0.2314
     54  O         12.1560   18.9460   19.5630 O.2    71  SER71      -0.2863
     55  CB        15.3120   19.3350   18.5050 C.3    71  SER71       0.2116
     56  OG        16.2670   19.1070   17.4820 O.3    71  SER71      -0.2180
     57  N         14.6400   12.3390   23.3830 N.3   105  HIS105     -0.1241
     58  CA        15.6480   12.1870   22.3300 C.3   105  HIS105      0.1621
     59  C         15.7260   10.7810   21.7510 C.2   105  HIS105      0.2264
     60  O         16.0400   10.6080   20.5720 O.2   105  HIS105     -0.2867
     61  CB        17.0290   12.6340   22.8130 C.3   105  HIS105      0.0745
     62  CG        17.2080   14.1180   22.7970 C.ar  105  HIS105      0.0817
     63  ND1       16.8800   14.9200   23.8690 N.ar  105  HIS105     -0.2268
     64  CD2       17.6050   14.9550   21.8080 C.ar  105  HIS105      0.1154
     65  CE1       17.0650   16.1870   23.5400 C.ar  105  HIS105      0.1986
     66  NE2       17.5030   16.2350   22.2950 N.ar  105  HIS105     -0.2212
     67  N         13.0380   10.8590   19.3530 N.3   108  ILE108     -0.1231
     68  CA        13.4010   11.7090   18.2290 C.3   108  ILE108      0.1692
     69  C         14.2660   10.9540   17.2100 C.2   108  ILE108      0.2592
     70  O         14.0360   11.0400   16.0080 O.2   108  ILE108     -0.2718
     71  CB        14.1320   12.9800   18.7370 C.3   108  ILE108      0.0266
     72  CG1       13.1010   13.9590   19.3130 C.3   108  ILE108      0.0019
     73  CG2       14.9340   13.6310   17.6190 C.3   108  ILE108      0.0020
     74  CD1       13.6960   15.2430   19.8670 C.3   108  ILE108      0.0001
     75  N         15.2460   10.1930   17.6790 N.am  109  TYR109     -0.1976
     76  CA        16.0950    9.4510   16.7520 C.3   109  TYR109      0.1639
     77  C         15.3780    8.2630   16.1220 C.2   109  TYR109      0.2290
     78  O         15.6460    7.9190   14.9780 O.2   109  TYR109     -0.2864
     79  CB        17.3760    9.0160   17.4580 C.3   109  TYR109      0.0560
     80  CG        18.1110   10.2060   18.0040 C.ar  109  TYR109     -0.0198
     81  CD1       18.2530   11.3660   17.2350 C.ar  109  TYR109     -0.0009
     82  CD2       18.6390   10.1990   19.2930 C.ar  109  TYR109     -0.0009
     83  CE1       18.8980   12.4880   17.7370 C.ar  109  TYR109      0.0417
     84  CE2       19.2910   11.3180   19.8040 C.ar  109  TYR109      0.0417
     85  CZ        19.4140   12.4530   19.0230 C.ar  109  TYR109      0.1957
     86  OH        20.0660   13.5520   19.5260 O.3   109  TYR109     -0.2866
     87  N         13.2230    9.9410   13.5910 N.3   112  LEU112     -0.1245
     88  CA        14.0670   10.5970   12.5910 C.3   112  LEU112      0.1561
     89  C         14.4150    9.6000   11.4830 C.2   112  LEU112      0.2260
     90  O         14.5520    9.9800   10.3170 O.2   112  LEU112     -0.2867
     91  CB        15.3660   11.1180   13.2240 C.3   112  LEU112      0.0270
     92  CG        16.3610   11.7510   12.2390 C.3   112  LEU112      0.0019
     93  CD1       15.7120   12.9390   11.5390 C.3   112  LEU112      0.0001
     94  CD2       17.6180   12.1820   12.9810 C.3   112  LEU112      0.0001
     95  N         12.4230    9.4770    8.3270 N.3   115  LEU115     -0.1245
     96  CA        12.6610   10.5150    7.3330 C.3   115  LEU115      0.1561
     97  C         13.9770   10.3350    6.5910 C.2   115  LEU115      0.2260
     98  O         14.3290   11.1670    5.7520 O.2   115  LEU115     -0.2867
     99  CB        12.6620   11.8960    8.0070 C.3   115  LEU115      0.0270
    100  CG        11.5460   12.2260    9.0020 C.3   115  LEU115      0.0019
    101  CD1       11.6650   13.6920    9.4400 C.3   115  LEU115      0.0001
    102  CD2       10.2030   11.9770    8.3570 C.3   115  LEU115      0.0001
    103  N         18.1710   13.0850    4.3410 N.3   121  VAL121     -0.1231
    104  CA        17.0380   13.2270    5.2490 C.3   121  VAL121      0.1692
    105  C         16.0410   14.3040    4.8260 C.2   121  VAL121      0.2592
    106  O         16.4270   15.3920    4.3850 O.2   121  VAL121     -0.2718
    107  CB        17.5330   13.5720    6.6740 C.3   121  VAL121      0.0266
    108  CG1       18.3070   14.8890    6.6470 C.3   121  VAL121      0.0020
    109  CG2       16.3690   13.6780    7.6290 C.3   121  VAL121      0.0020
    110  N         14.7560   13.9930    4.9720 N.am  122  LEU122     -0.1966
    111  CA        13.6980   14.9390    4.6390 C.3   122  LEU122      0.1728
    112  C         13.7090   16.0520    5.6700 C.2   122  LEU122      0.2616
    113  O         13.9690   15.8120    6.8540 O.2   122  LEU122     -0.2715
    114  CB        12.3330   14.2540    4.6800 C.3   122  LEU122      0.0311
    115  CG        11.9900   13.2590    3.5710 C.3   122  LEU122      0.0022
    116  CD1       10.5980   12.6830    3.8440 C.3   122  LEU122      0.0001
    117  CD2       12.0320   13.9580    2.2200 C.3   122  LEU122      0.0001
    118  N         13.4150   17.2680    5.2280 N.am  123  ILE123     -0.1977
    119  CA        13.3900   18.4080    6.1330 C.3   123  ILE123      0.1596
    120  C         12.1970   19.2910    5.8240 C.2   123  ILE123      0.2287
    121  O         11.5510   19.1430    4.7840 O.2   123  ILE123     -0.2864
    122  CB        14.6590   19.2680    6.0090 C.3   123  ILE123      0.0276
    123  CG1       14.7430   19.8680    4.6060 C.3   123  ILE123      0.0022
    124  CG2       15.8900   18.4310    6.3030 C.3   123  ILE123      0.0022
    125  CD1       15.8920   20.8440    4.4300 C.3   123  ILE123      0.0001
    126  N         17.8820   17.0400    2.4210 N.3   130  MET130     -0.1245
    127  CA        19.2810   17.4460    2.5680 C.3   130  MET130      0.1570
    128  C         20.1200   16.1710    2.5150 C.2   130  MET130      0.2261
    129  O         19.9140   15.2510    3.3100 O.2   130  MET130     -0.2867
    130  CB        19.4730   18.1690    3.9090 C.3   130  MET130      0.0387
    131  CG        20.7040   19.0600    3.9880 C.3   130  MET130      0.0595
    132  SD        20.6410   20.1720    5.4340 S.3   130  MET130     -0.1393
    133  CE        19.5650   21.4240    4.8350 C.3   130  MET130      0.0692
    134  N         25.6690   17.3480    4.5660 N.3   135  LEU135     -0.1245
    135  CA        25.7370   17.4730    6.0200 C.3   135  LEU135      0.1561
    136  C         27.1020   17.0310    6.5270 C.2   135  LEU135      0.2260
    137  O         27.6530   17.6080    7.4620 O.2   135  LEU135     -0.2867
    138  CB        24.6550   16.6050    6.6640 C.3   135  LEU135      0.0270
    139  CG        23.2300   17.1370    6.5130 C.3   135  LEU135      0.0019
    140  CD1       22.2240   16.0360    6.7820 C.3   135  LEU135      0.0001
    141  CD2       23.0360   18.3030    7.4680 C.3   135  LEU135      0.0001
    142  N         30.0480   19.6760    6.4470 N.3   138  LEU138     -0.1245
    143  CA        29.9730   20.8970    7.2380 C.3   138  LEU138      0.1561
    144  C         31.2330   21.0310    8.0910 C.2   138  LEU138      0.2260
    145  O         31.8150   20.0310    8.5010 O.2   138  LEU138     -0.2867
    146  CB        28.7220   20.8680    8.1190 C.3   138  LEU138      0.0270
    147  CG        27.4050   20.8900    7.3320 C.3   138  LEU138      0.0019
    148  CD1       26.2020   20.7520    8.2710 C.3   138  LEU138      0.0001
    149  CD2       27.3290   22.1960    6.5450 C.3   138  LEU138      0.0001
    150  N         30.4110   20.3150   13.2650 N.3   142  PHE142     -0.1241
    151  CA        29.0860   19.9870   12.7490 C.3   142  PHE142      0.1605
    152  C         29.0260   18.8720   11.7040 C.2   142  PHE142      0.2264
    153  O         27.9690   18.2720   11.4970 O.2   142  PHE142     -0.2867
    154  CB        28.4340   21.2460   12.1810 C.3   142  PHE142      0.0534
    155  CG        28.2600   22.3440   13.1880 C.ar  142  PHE142     -0.0203
    156  CD1       28.9910   23.5240   13.0840 C.ar  142  PHE142     -0.0042
    157  CD2       27.3570   22.2040   14.2400 C.ar  142  PHE142     -0.0042
    158  CE1       28.8230   24.5500   14.0110 C.ar  142  PHE142     -0.0003
    159  CE2       27.1820   23.2220   15.1720 C.ar  142  PHE142     -0.0003
    160  CZ        27.9160   24.3980   15.0570 C.ar  142  PHE142     -0.0000
    161  N         27.9140   15.5880   13.1860 N.3   145  PHE145     -0.1227
    162  CA        26.6510   15.6800   13.9060 C.3   145  PHE145      0.1736
    163  C         25.5960   14.6090   13.5630 C.2   145  PHE145      0.2595
    164  O         25.1140   13.8930   14.4490 O.2   145  PHE145     -0.2718
    165  CB        26.0720   17.0780   13.6670 C.3   145  PHE145      0.0547
    166  CG        24.9330   17.4380   14.5710 C.ar  145  PHE145     -0.0202
    167  CD1       25.1510   17.6960   15.9190 C.ar  145  PHE145     -0.0042
    168  CD2       23.6410   17.5640   14.0620 C.ar  145  PHE145     -0.0042
    169  CE1       24.0950   18.0810   16.7500 C.ar  145  PHE145     -0.0003
    170  CE2       22.5800   17.9470   14.8820 C.ar  145  PHE145     -0.0003
    171  CZ        22.8080   18.2080   16.2300 C.ar  145  PHE145     -0.0000
    172  N         25.2560   14.4940   12.2800 N.am  146  MET146     -0.1979
    173  CA        24.2240   13.5600   11.8250 C.3   146  MET146      0.1605
    174  C         24.6470   12.1470   11.4140 C.2   146  MET146      0.2287
    175  O         23.8450   11.2190   11.4910 O.2   146  MET146     -0.2864
    176  CB        23.4510   14.1940   10.6640 C.3   146  MET146      0.0413
    177  CG        22.7630   15.5030   11.0180 C.3   146  MET146      0.0598
    178  SD        21.4790   15.2900   12.2760 S.3   146  MET146     -0.1393
    179  CE        20.1480   14.6080   11.2750 C.3   146  MET146      0.0692
    180  N         23.4200    9.2180   13.2450 N.3   149  LYS149     -0.1245
    181  CA        21.9680    9.0580   13.1500 C.3   149  LYS149      0.1561
    182  C         21.6260    8.2950   11.8680 C.2   149  LYS149      0.2260
    183  O         20.7190    7.4600   11.8600 O.2   149  LYS149     -0.2867
    184  CB        21.2660   10.4240   13.1370 C.3   149  LYS149      0.0271
    185  CG        21.8700   11.4640   14.0830 C.3   149  LYS149      0.0035
    186  CD        21.7870   11.0490   15.5240 C.3   149  LYS149      0.0206
    187  CE        22.7680   11.8430   16.3850 C.3   149  LYS149      0.1093
    188  NZ        22.5610   13.3100   16.3010 N.3   149  LYS149     -0.1314
    189  N         25.8460   12.1040   21.1470 N.3   231  HIS231     -0.1241
    190  CA        25.2660   13.4050   20.8210 C.3   231  HIS231      0.1621
    191  C         25.5610   14.4130   21.9290 C.2   231  HIS231      0.2264
    192  O         25.9540   15.5400   21.6570 O.2   231  HIS231     -0.2867
    193  CB        23.7520   13.2840   20.6320 C.3   231  HIS231      0.0745
    194  CG        23.0900   14.5630   20.2180 C.ar  231  HIS231      0.0817
    195  ND1       23.1710   15.0600   18.9370 N.ar  231  HIS231     -0.2268
    196  CD2       22.3580   15.4570   20.9230 C.ar  231  HIS231      0.1154
    197  CE1       22.5180   16.2070   18.8690 C.ar  231  HIS231      0.1986
    198  NE2       22.0150   16.4710   20.0600 N.ar  231  HIS231     -0.2212
    199  N         27.6120   17.9110   21.8120 N.3   235  LEU235     -0.1245
    200  CA        26.9990   19.1690   22.2110 C.3   235  LEU235      0.1561
    201  C         27.9470   19.9190   23.1560 C.2   235  LEU235      0.2260
    202  O         28.0410   21.1500   23.1120 O.2   235  LEU235     -0.2867
    203  CB        25.6590   18.8870   22.8960 C.3   235  LEU235      0.0270
    204  CG        24.4000   19.4720   22.2510 C.3   235  LEU235      0.0019
    205  CD1       24.3990   19.2270   20.7520 C.3   235  LEU235      0.0001
    206  CD2       23.1780   18.8450   22.9040 C.3   235  LEU235      0.0001
    207  N         21.9120   27.8340   22.7470 N.3   247  LEU247     -0.1245
    208  CA        21.1500   26.5910   22.7260 C.3   247  LEU247      0.1561
    209  C         19.7950   26.8480   23.3730 C.2   247  LEU247      0.2260
    210  O         19.7130   27.4650   24.4360 O.2   247  LEU247     -0.2867
    211  CB        21.8960   25.4950   23.4830 C.3   247  LEU247      0.0270
    212  CG        23.0530   24.8150   22.7440 C.3   247  LEU247      0.0019
    213  CD1       22.4960   23.7630   21.7890 C.3   247  LEU247      0.0001
    214  CD2       23.8930   25.8550   21.9980 C.3   247  LEU247      0.0001
    215  N         15.8180   22.6260   25.3770 N.3   251  LEU251     -0.1245
    216  CA        16.8440   21.6220   25.1350 C.3   251  LEU251      0.1561
    217  C         17.8960   21.6290   26.2440 C.2   251  LEU251      0.2260
    218  O         18.3650   20.5710   26.6640 O.2   251  LEU251     -0.2867
    219  CB        17.4910   21.8480   23.7640 C.3   251  LEU251      0.0270
    220  CG        16.5300   21.7760   22.5670 C.3   251  LEU251      0.0019
    221  CD1       17.3200   21.8950   21.2690 C.3   251  LEU251      0.0001
    222  CD2       15.7440   20.4580   22.5930 C.3   251  LEU251      0.0001
    223  N         19.0180   18.3520   28.6690 N.3   255  TYR255     -0.1241
    224  CA        20.3780   17.8280   28.8200 C.3   255  TYR255      0.1605
    225  C         21.0010   18.0610   30.1910 C.2   255  TYR255      0.2264
    226  O         22.0200   17.4590   30.5230 O.2   255  TYR255     -0.2867
    227  CB        21.2970   18.4110   27.7420 C.3   255  TYR255      0.0534
    228  CG        20.9910   17.8800   26.3610 C.ar  255  TYR255     -0.0201
    229  CD1       20.5080   18.7180   25.3570 C.ar  255  TYR255     -0.0009
    230  CD2       21.1590   16.5270   26.0690 C.ar  255  TYR255     -0.0009
    231  CE1       20.1990   18.2220   24.0950 C.ar  255  TYR255      0.0417
    232  CE2       20.8530   16.0200   24.8140 C.ar  255  TYR255      0.0417
    233  CZ        20.3760   16.8710   23.8310 C.ar  255  TYR255      0.1957
    234  OH        20.0930   16.3640   22.5860 O.3   255  TYR255     -0.2866
@<TRIPOS>BOND
     1   117   115    1
     2   126   127    1
     3   128   127    1
     4   128   129    2
     5   127   130    1
     6   115   116    1
     7   115   114    1
     8   130   131    1
     9   131   132    1
    10   103   104    1
    11   106   105    2
    12   125   123    1
    13   134   135    1
    14   123   122    1
    15   111   114    1
    16   111   110    1
    17   111   112    1
    18   121   120    2
    19   105   110   am
    20   105   104    1
    21   133   132    1
    22   118   112   am
    23   118   119    1
    24   104   107    1
    25   112   113    2
    26    98    97    2
    27   120   119    1
    28   122   119    1
    29   122   124    1
    30   135   136    1
    31   135   138    1
    32   142   143    1
    33    13    11    1
    34   139   138    1
    35   139   140    1
    36   139   141    1
    37   136   137    2
    38   149   147    1
    39    97    96    1
    40   108   107    1
    41   107   109    1
    42   143   144    1
    43   143   146    1
    44   147   146    1
    45   147   148    1
    46    96    99    1
    47    96    95    1
    48    11    10    1
    49    99   100    1
    50   144   145    2
    51   102   100    1
    52     1     2    1
    53    10    12    1
    54    10     7    1
    55   100   101    1
    56     2     5    1
    57     2     3    1
    58     7     6    1
    59     7     8    1
    60    90    89    2
    61   176   177    1
    62   176   173    1
    63     3     4    2
    64   177   178    1
    65     8     9    2
    66     8    14   am
    67   179   178    1
    68   174   175    2
    69   174   173    1
    70    89    88    1
    71   153   152    2
    72    93    92    1
    73   152   151    1
    74   173   172    1
    75   183   182    2
    76   182   181    1
    77    14    15    1
    78   154   151    1
    79   154   155    1
    80    92    94    1
    81    92    91    1
    82   172   163   am
    83    88    91    1
    84    88    87    1
    85   151   150    1
    86   156   155   ar
    87   156   158   ar
    88   184   181    1
    89   184   185    1
    90    25    26    1
    91   181   180    1
    92   161   162    1
    93   155   157   ar
    94    46    47    1
    95    46    45    1
    96    47    48    2
    97    45    44    1
    98    15    18    1
    99    15    16    1
   100   163   162    1
   101   163   164    2
   102    29    26    1
   103    29    30    1
   104   165   162    1
   105   165   166    1
   106    44    41    1
   107    26    27    1
   108    48    50    1
   109    48    49    1
   110   158   160   ar
   111   168   166   ar
   112   168   170   ar
   113   185   186    1
   114    18    19    1
   115    16    17    2
   116   157   159   ar
   117   166   167   ar
   118   170   171   ar
   119    41    40    1
   120    41    42    1
   121    78    77    2
   122   160   159   ar
   123    27    28    2
   124    27    31   am
   125   186   187    1
   126    19    20   ar
   127    19    21   ar
   128    20    22   ar
   129    31    32    1
   130   167   169   ar
   131    70    69    2
   132    42    43    2
   133    42    51   am
   134    77    76    1
   135   171   169   ar
   136   188   187    1
   137    21    23   ar
   138    76    79    1
   139    76    75    1
   140    51    52    1
   141    22    24   ar
   142    69    75   am
   143    69    68    1
   144    81    83   ar
   145    81    80   ar
   146    32    33    1
   147    32    35    1
   148    33    34    2
   149    79    80    1
   150    56    55    1
   151    73    71    1
   152    83    85   ar
   153    35    36    1
   154    23    24   ar
   155    52    55    1
   156    52    53    1
   157    80    82   ar
   158    68    71    1
   159    68    67    1
   160    36    37    1
   161    71    72    1
   162   197   195   ar
   163   197   198   ar
   164   195   194   ar
   165    53    54    2
   166    85    86    1
   167    85    84   ar
   168    38    37    2
   169    82    84   ar
   170    72    74    1
   171    37    39   am
   172   198   196   ar
   173   194   193    1
   174   194   196   ar
   175    60    59    2
   176   193   190    1
   177   205   204    1
   178   190   189    1
   179   190   191    1
   180   221   220    1
   181   192   191    2
   182    59    58    1
   183   213   212    1
   184    64    66   ar
   185    64    62   ar
   186   199   200    1
   187   214   212    1
   188   200   203    1
   189   200   201    1
   190   204   203    1
   191   204   206    1
   192    66    65   ar
   193    58    61    1
   194    58    57    1
   195   220   222    1
   196   220   219    1
   197   234   233    1
   198   208   207    1
   199   208   209    1
   200   208   211    1
   201   212   211    1
   202    62    61    1
   203    62    63   ar
   204   202   201    2
   205   209   210    2
   206    65    63   ar
   207   219   216    1
   208   233   231   ar
   209   233   232   ar
   210   231   229   ar
   211   232   230   ar
   212   216   215    1
   213   216   217    1
   214   229   228   ar
   215   230   228   ar
   216   217   218    2
   217   228   227    1
   218   227   224    1
   219   223   224    1
   220   224   225    1
   221   225   226    2
