@<TRIPOS>MOLECULE
tmp/2vsuB00.pdb
 155 149 0 0 0
SMALL
GASTEIGER

@<TRIPOS>ATOM
      1  N        -23.3010  -26.2080  -37.5040 N.3    25  GLU25      -0.1231
      2  CA       -24.2400  -25.0740  -37.4960 C.3    25  GLU25       0.1699
      3  C        -23.5500  -23.7260  -37.2470 C.2    25  GLU25       0.2592
      4  O        -24.0490  -22.6640  -37.6360 O.2    25  GLU25      -0.2718
      5  CB       -25.3910  -25.3380  -36.5120 C.3    25  GLU25       0.0402
      6  CG       -25.0010  -25.5660  -35.0210 C.3    25  GLU25       0.1161
      7  CD       -24.1300  -26.8560  -34.7390 C.2    25  GLU25       0.3649
      8  OE1      -24.3270  -27.9280  -35.3410 O.co2  25  GLU25      -0.2457
      9  OE2      -23.2690  -26.7650  -33.8590 O.co2  25  GLU25      -0.2457
     10  N        -22.3800  -23.7910  -36.6180 N.am   26  LYS26      -0.1966
     11  CA       -21.5180  -22.6380  -36.4250 C.3    26  LYS26       0.1728
     12  C        -20.2940  -22.7640  -37.3140 C.2    26  LYS26       0.2616
     13  O        -19.2880  -22.1320  -37.0510 O.2    26  LYS26      -0.2715
     14  CB       -21.0790  -22.5240  -34.9610 C.3    26  LYS26       0.0311
     15  CG       -22.2000  -22.0850  -33.9910 C.3    26  LYS26       0.0038
     16  CD       -22.7160  -20.6740  -34.3330 C.3    26  LYS26       0.0206
     17  CE       -23.8200  -20.2460  -33.3930 C.3    26  LYS26       0.1093
     18  NZ       -24.3510  -18.9170  -33.8150 N.3    26  LYS26      -0.1314
     19  N        -20.3900  -23.5860  -38.3660 N.am   27  ARG27      -0.1977
     20  CA       -19.2670  -23.8770  -39.3050 C.3    27  ARG27       0.1597
     21  C        -17.9520  -24.2990  -38.5830 C.2    27  ARG27       0.2287
     22  O        -16.8290  -23.9100  -38.9700 O.2    27  ARG27      -0.2864
     23  CB       -19.0380  -22.6700  -40.2500 C.3    27  ARG27       0.0334
     24  CG       -20.2800  -22.2930  -41.0470 C.3    27  ARG27       0.0492
     25  CD       -20.6600  -23.3500  -42.0870 C.3    27  ARG27       0.2205
     26  NE       -21.8630  -22.9700  -42.8430 N.pl3  27  ARG27      -0.0865
     27  CZ       -23.1230  -23.1460  -42.4190 C.cat  27  ARG27       0.5346
     28  NH1      -23.3760  -23.7330  -41.2540 N.pl3  27  ARG27       0.1354
     29  NH2      -24.1450  -22.7580  -43.1900 N.pl3  27  ARG27       0.1354
     30  N        -16.6700  -23.3970  -35.7420 N.3    29  ALA29      -0.1245
     31  CA       -15.9240  -22.3270  -35.1430 C.3    29  ALA29       0.1562
     32  C        -15.3250  -22.8150  -33.8360 C.2    29  ALA29       0.2260
     33  O        -15.9190  -23.6300  -33.1170 O.2    29  ALA29      -0.2867
     34  CB       -16.8040  -21.0730  -34.9320 C.3    29  ALA29       0.0290
     35  N        -20.2150  -28.3590  -44.2620 N.3    61  GLU61      -0.1245
     36  CA       -19.5490  -27.6110  -45.3190 C.3    61  GLU61       0.1567
     37  C        -18.2180  -26.9410  -44.8990 C.2    61  GLU61       0.2260
     38  O        -17.3930  -26.6330  -45.7670 O.2    61  GLU61      -0.2867
     39  CB       -20.5000  -26.5540  -45.9030 C.3    61  GLU61       0.0388
     40  CG       -21.6720  -27.1710  -46.7110 C.3    61  GLU61       0.1160
     41  CD       -22.7230  -26.1610  -47.1090 C.2    61  GLU61       0.3649
     42  OE1      -22.7230  -25.0340  -46.5890 O.co2  61  GLU61      -0.2457
     43  OE2      -23.5550  -26.5150  -47.9600 O.co2  61  GLU61      -0.2457
     44  N        -14.3180  -22.4900  -39.5110 N.3    65  ALA65      -0.1245
     45  CA       -14.4130  -21.1130  -39.8990 C.3    65  ALA65       0.1562
     46  C        -13.5700  -20.1820  -39.0000 C.2    65  ALA65       0.2260
     47  O        -13.7260  -18.9730  -39.0730 O.2    65  ALA65      -0.2867
     48  CB       -15.8580  -20.6970  -39.9830 C.3    65  ALA65       0.0290
     49  N        -11.6350  -18.9550  -35.1730 N.3    67  MET67      -0.1230
     50  CA       -12.0410  -18.6720  -33.8130 C.3    67  MET67       0.1702
     51  C        -13.5290  -18.3060  -33.7570 C.2    67  MET67       0.2592
     52  O        -14.0550  -17.6360  -34.6580 O.2    67  MET67      -0.2718
     53  CB       -11.2140  -17.4980  -33.2490 C.3    67  MET67       0.0401
     54  CG       -11.3540  -17.2930  -31.7490 C.3    67  MET67       0.0596
     55  SD       -10.6610  -15.7220  -31.1840 S.3    67  MET67      -0.1393
     56  CE       -11.4930  -14.5320  -32.2240 C.3    67  MET67       0.0692
     57  N        -14.2030  -18.7640  -32.7080 N.am   68  ASP68      -0.1960
     58  CA       -15.5860  -18.3890  -32.4890 C.3    68  ASP68       0.1840
     59  C        -15.5850  -17.0210  -31.8480 C.2    68  ASP68       0.2622
     60  O        -15.3550  -16.8830  -30.6510 O.2    68  ASP68      -0.2715
     61  CB       -16.2860  -19.4010  -31.5860 C.3    68  ASP68       0.1450
     62  CG       -17.7920  -19.1270  -31.4330 C.2    68  ASP68       0.3671
     63  OD1      -18.2150  -17.9460  -31.2860 O.co2  68  ASP68      -0.2456
     64  OD2      -18.5530  -20.1130  -31.4420 O.co2  68  ASP68      -0.2456
     65  N        -15.8520  -16.0070  -32.6580 N.am   69  LEU69      -0.1963
     66  CA       -15.7610  -14.6240  -32.2130 C.3    69  LEU69       0.1728
     67  C        -16.6590  -14.4010  -30.9970 C.2    69  LEU69       0.2616
     68  O        -16.2560  -13.7340  -30.0280 O.2    69  LEU69      -0.2715
     69  CB       -16.1670  -13.6960  -33.3520 C.3    69  LEU69       0.0311
     70  CG       -15.6280  -14.0930  -34.7350 C.3    69  LEU69       0.0022
     71  CD1      -16.6890  -13.9280  -35.8290 C.3    69  LEU69       0.0001
     72  CD2      -14.3330  -13.3530  -35.0650 C.3    69  LEU69       0.0001
     73  N        -17.8490  -15.0070  -31.0190 N.am   70  LYS70      -0.1977
     74  CA       -18.7960  -14.8180  -29.9330 C.3    70  LYS70       0.1596
     75  C        -18.3950  -15.5360  -28.6590 C.2    70  LYS70       0.2287
     76  O        -18.2980  -14.8960  -27.6100 O.2    70  LYS70      -0.2864
     77  CB       -20.2280  -15.1920  -30.3570 C.3    70  LYS70       0.0298
     78  CG       -21.1960  -15.4410  -29.1910 C.3    70  LYS70       0.0038
     79  CD       -22.5690  -14.8100  -29.4190 C.3    70  LYS70       0.0206
     80  CE       -23.0060  -14.8770  -30.8770 C.3    70  LYS70       0.1093
     81  NZ       -24.0480  -13.8600  -31.1370 N.3    70  LYS70      -0.1314
     82  N        -14.6160  -24.7230  -45.8310 N.3   113  TRP113     -0.1241
     83  CA       -14.1160  -23.4660  -45.3120 C.3   113  TRP113      0.1605
     84  C        -12.9920  -23.6710  -44.3030 C.2   113  TRP113      0.2264
     85  O        -13.1390  -24.4410  -43.3430 O.2   113  TRP113     -0.2867
     86  CB       -15.2470  -22.6600  -44.6420 C.3   113  TRP113      0.0550
     87  CG       -16.5000  -22.5170  -45.4810 C.ar  113  TRP113      0.0003
     88  CD1      -17.6840  -23.1770  -45.3250 C.ar  113  TRP113      0.0946
     89  CD2      -16.6730  -21.6280  -46.5870 C.ar  113  TRP113      0.0152
     90  NE1      -18.5900  -22.7530  -46.2740 N.ar  113  TRP113     -0.2442
     91  CE2      -18.0000  -21.7960  -47.0550 C.ar  113  TRP113      0.0810
     92  CE3      -15.8460  -20.6780  -47.2050 C.ar  113  TRP113      0.0012
     93  CZ2      -18.5200  -21.0590  -48.1380 C.ar  113  TRP113      0.0191
     94  CZ3      -16.3680  -19.9210  -48.2840 C.ar  113  TRP113      0.0001
     95  CH2      -17.6830  -20.1400  -48.7500 C.ar  113  TRP113      0.0015
     96  N        -10.6830  -20.7520  -42.3180 N.3   115  PHE115     -0.1227
     97  CA       -10.3860  -19.3340  -42.0660 C.3   115  PHE115      0.1736
     98  C         -9.5830  -19.0910  -40.8100 C.2   115  PHE115      0.2596
     99  O         -9.7010  -19.8520  -39.8460 O.2   115  PHE115     -0.2718
    100  CB       -11.6800  -18.5650  -41.8720 C.3   115  PHE115      0.0547
    101  CG       -12.4360  -18.3540  -43.1360 C.ar  115  PHE115     -0.0202
    102  CD1      -13.5810  -19.1230  -43.4200 C.ar  115  PHE115     -0.0042
    103  CD2      -12.0220  -17.3800  -44.0460 C.ar  115  PHE115     -0.0042
    104  CE1      -14.3040  -18.9100  -44.5800 C.ar  115  PHE115     -0.0003
    105  CE2      -12.7380  -17.1720  -45.2350 C.ar  115  PHE115     -0.0003
    106  CZ       -13.8740  -17.9560  -45.4990 C.ar  115  PHE115     -0.0000
    107  N         -8.8290  -17.9880  -40.8200 N.am  116  GLY116     -0.1942
    108  CA        -8.1450  -17.4450  -39.6440 C.3   116  GLY116      0.2014
    109  C         -7.4140  -18.4930  -38.7970 C.2   116  GLY116      0.2639
    110  O         -6.4660  -19.1420  -39.2720 O.2   116  GLY116     -0.2714
    111  N         -7.8660  -18.6480  -37.5520 N.am  117  GLY117     -0.1954
    112  CA        -7.2300  -19.5390  -36.5640 C.3   117  GLY117      0.1869
    113  C         -7.0990  -20.9940  -37.0430 C.2   117  GLY117      0.2309
    114  O         -6.2700  -21.7310  -36.5530 O.2   117  GLY117     -0.2863
    115  N         -8.7790  -13.8790  -42.6680 N.3   139  SER139     -0.1202
    116  CA        -9.6950  -12.7740  -42.5950 C.3   139  SER139      0.2020
    117  C         -9.4760  -11.8950  -41.3620 C.2   139  SER139      0.2618
    118  O        -10.1940  -10.8900  -41.2090 O.2   139  SER139     -0.2717
    119  CB       -11.1090  -13.3200  -42.5950 C.3   139  SER139      0.2103
    120  OG       -11.2110  -14.2560  -41.5320 O.3   139  SER139     -0.2182
    121  N         -8.4870  -12.2210  -40.5100 N.am  140  GLU140     -0.1979
    122  CA        -8.1700  -11.3810  -39.3380 C.3   140  GLU140      0.1602
    123  C         -8.1260   -9.8910  -39.6910 C.2   140  GLU140      0.2287
    124  O         -8.7290   -9.0690  -38.9870 O.2   140  GLU140     -0.2864
    125  CB        -6.8410  -11.7910  -38.6870 C.3   140  GLU140      0.0415
    126  CG        -6.9170  -13.1620  -37.9730 C.3   140  GLU140      0.1163
    127  CD        -6.6970  -14.3600  -38.8690 C.2   140  GLU140      0.3649
    128  OE1       -6.8200  -14.2660  -40.1130 O.co2 140  GLU140     -0.2457
    129  OE2       -6.3670  -15.4290  -38.3030 O.co2 140  GLU140     -0.2457
    130  N        -11.3280   -8.1510  -39.8520 N.3   143  TRP143     -0.1241
    131  CA       -11.9590   -8.0390  -38.5580 C.3   143  TRP143      0.1605
    132  C        -11.2820   -7.0590  -37.6110 C.2   143  TRP143      0.2264
    133  O        -11.7770   -6.8710  -36.5000 O.2   143  TRP143     -0.2867
    134  CB       -12.0070   -9.4100  -37.8880 C.3   143  TRP143      0.0550
    135  CG       -12.9000  -10.3110  -38.6230 C.ar  143  TRP143      0.0003
    136  CD1      -12.5360  -11.2610  -39.5180 C.ar  143  TRP143      0.0946
    137  CD2      -14.3230  -10.3430  -38.5480 C.ar  143  TRP143      0.0152
    138  NE1      -13.6540  -11.9030  -40.0260 N.ar  143  TRP143     -0.2442
    139  CE2      -14.7660  -11.3560  -39.4380 C.ar  143  TRP143      0.0810
    140  CE3      -15.2760   -9.6190  -37.8090 C.ar  143  TRP143      0.0012
    141  CZ2      -16.1220  -11.6680  -39.6090 C.ar  143  TRP143      0.0191
    142  CZ3      -16.6270   -9.9250  -37.9900 C.ar  143  TRP143      0.0001
    143  CH2      -17.0320  -10.9450  -38.8830 C.ar  143  TRP143      0.0015
    144  N         -7.9380   -7.2330  -36.4460 N.3   145  ILE145     -0.1245
    145  CA        -6.7930   -7.7970  -35.7030 C.3   145  ILE145      0.1561
    146  C         -5.7400   -8.3970  -36.6720 C.2   145  ILE145      0.2260
    147  O         -6.0890   -8.8680  -37.7800 O.2   145  ILE145     -0.2867
    148  CB        -7.2240   -8.8780  -34.6590 C.3   145  ILE145      0.0252
    149  CG1       -7.8700  -10.0870  -35.3400 C.3   145  ILE145      0.0019
    150  CG2       -8.1450   -8.2570  -33.5470 C.3   145  ILE145      0.0019
    151  CD1       -7.6330  -11.3270  -34.6020 C.3   145  ILE145      0.0001
    152  N         -3.7090  -13.8760  -35.0140 N.3   148  GLY148     -0.1225
    153  CA        -3.3380  -14.2170  -33.6200 C.3   148  GLY148      0.1811
    154  C         -2.9090  -15.6600  -33.5270 C.2   148  GLY148      0.2280
    155  O         -2.9360  -16.3900  -34.5270 O.2   148  GLY148     -0.2866
@<TRIPOS>BOND
     1    95    94   ar
     2    95    93   ar
     3    94    92   ar
     4    93    91   ar
     5    43    41   ar
     6    92    89   ar
     7    41    40    1
     8    41    42   ar
     9    91    89   ar
    10    91    90   ar
    11    40    39    1
    12    89    87   ar
    13    90    88   ar
    14    39    36    1
    15    82    83    1
    16    38    37    2
    17   106   105   ar
    18   106   104   ar
    19    87    88   ar
    20    87    86    1
    21    36    37    1
    22    36    35    1
    23    83    86    1
    24    83    84    1
    25   105   103   ar
    26   104   102   ar
    27    84    85    2
    28   103   101   ar
    29   102   101   ar
    30    29    27    1
    31   101   100    1
    32    26    27    2
    33    26    25    1
    34   115   116    1
    35   119   116    1
    36   119   120    1
    37   116   117    1
    38    27    28    1
    39    96    97    1
    40    25    24    1
    41    97   100    1
    42    97    98    1
    43   117   118    2
    44   117   121   am
    45    24    23    1
    46   107    98   am
    47   107   108    1
    48    98    99    2
    49   121   122    1
    50    23    20    1
    51   128   127   ar
    52   138   136   ar
    53   138   139   ar
    54    48    45    1
    55    45    44    1
    56    45    46    1
    57   130   131    1
    58   123   122    1
    59   123   124    2
    60   108   109    1
    61   141   139   ar
    62   141   143   ar
    63   136   135   ar
    64   139   137   ar
    65   122   125    1
    66    20    21    1
    67    20    19    1
    68   110   109    2
    69    47    46    2
    70    22    21    2
    71   143   142   ar
    72   127   129   ar
    73   127   126    1
    74   109   111   am
    75   125   126    1
    76   135   137   ar
    77   135   134    1
    78   131   134    1
    79   131   132    1
    80   137   140   ar
    81    19    12   am
    82   142   140   ar
    83   147   146    2
    84     4     3    2
    85   132   133    2
    86   111   112    1
    87     1     2    1
    88     2     3    1
    89     2     5    1
    90    12    13    2
    91    12    11    1
    92     3    10   am
    93   113   112    1
    94   113   114    2
    95   146   145    1
    96    10    11    1
    97     5     6    1
    98   144   145    1
    99    11    14    1
   100    71    70    1
   101    30    31    1
   102   145   148    1
   103     8     7   ar
   104   149   148    1
   105   149   151    1
   106    49    50    1
   107    31    34    1
   108    31    32    1
   109    72    70    1
   110     6     7    1
   111   152   153    1
   112    14    15    1
   113     7     9   ar
   114    70    69    1
   115   148   150    1
   116    52    51    2
   117   155   154    2
   118    16    15    1
   119    16    17    1
   120    32    33    2
   121    18    17    1
   122    50    51    1
   123    50    53    1
   124    51    57   am
   125   153   154    1
   126    69    66    1
   127    53    54    1
   128    57    58    1
   129    65    66    1
   130    65    59   am
   131    58    59    1
   132    58    61    1
   133    56    55    1
   134    66    67    1
   135    59    60    2
   136    54    55    1
   137    61    62    1
   138    64    62   ar
   139    62    63   ar
   140    81    80    1
   141    73    67   am
   142    73    74    1
   143    67    68    2
   144    80    79    1
   145    77    74    1
   146    77    78    1
   147    74    75    1
   148    79    78    1
   149    75    76    2
