@<TRIPOS>MOLECULE
tmp/2vsuD01.pdb
 96 88 0 0 0
SMALL
GASTEIGER

@<TRIPOS>ATOM
      1  N         13.8860  -36.9590   -9.9030 N.3    68  MET68      -0.1245
      2  CA        12.7930  -37.8240  -10.3390 C.3    68  MET68       0.1570
      3  C         12.7690  -39.1220   -9.4910 C.2    68  MET68       0.2261
      4  O         13.7990  -39.5420   -8.8990 O.2    68  MET68      -0.2867
      5  CB        12.8210  -38.0720  -11.8560 C.3    68  MET68       0.0387
      6  CG        13.0480  -36.7860  -12.6390 C.3    68  MET68       0.0595
      7  SD        11.7830  -35.5100  -12.3730 S.3    68  MET68      -0.1393
      8  CE        10.2170  -36.2060  -12.9960 C.3    68  MET68       0.0692
      9  N          8.8920  -43.1140  -11.4060 N.3    73  TYR73      -0.1227
     10  CA         9.0550  -42.3180  -12.6400 C.3    73  TYR73       0.1736
     11  C          9.9470  -42.9980  -13.6780 C.2    73  TYR73       0.2595
     12  O          9.6630  -42.8890  -14.8490 O.2    73  TYR73      -0.2718
     13  CB         9.5280  -40.8450  -12.3740 C.3    73  TYR73       0.0548
     14  CG         9.6630  -39.9840  -13.6460 C.ar   73  TYR73      -0.0200
     15  CD1       10.8660  -39.9530  -14.3820 C.ar   73  TYR73      -0.0009
     16  CD2        8.6020  -39.2080  -14.0910 C.ar   73  TYR73      -0.0009
     17  CE1       10.9870  -39.1750  -15.5350 C.ar   73  TYR73       0.0417
     18  CE2        8.7090  -38.4350  -15.1930 C.ar   73  TYR73       0.0417
     19  CZ         9.9080  -38.4190  -15.9370 C.ar   73  TYR73       0.1957
     20  OH         9.9680  -37.6070  -17.0550 O.3    73  TYR73      -0.2866
     21  N         11.0210  -43.6610  -13.2650 N.am   74  PHE74      -0.1976
     22  CA        11.8510  -44.3970  -14.2360 C.3    74  PHE74       0.1639
     23  C         11.4720  -45.8720  -14.3070 C.2    74  PHE74       0.2290
     24  O         10.8700  -46.2670  -15.2800 O.2    74  PHE74      -0.2864
     25  CB        13.3590  -44.2290  -13.9890 C.3    74  PHE74       0.0560
     26  CG        13.8420  -42.7940  -14.1540 C.ar   74  PHE74      -0.0200
     27  CD1       14.4310  -42.1170  -13.0840 C.ar   74  PHE74      -0.0042
     28  CD2       13.7190  -42.1390  -15.3810 C.ar   74  PHE74      -0.0042
     29  CE1       14.8680  -40.7880  -13.2260 C.ar   74  PHE74      -0.0003
     30  CE2       14.1540  -40.8140  -15.5300 C.ar   74  PHE74      -0.0003
     31  CZ        14.7280  -40.1480  -14.4360 C.ar   74  PHE74      -0.0000
     32  N          6.9030  -38.0810  -19.8600 N.3    89  ARG89      -0.1245
     33  CA         7.9650  -37.0630  -20.0530 C.3    89  ARG89       0.1563
     34  C          7.3230  -35.6780  -20.2680 C.2    89  ARG89       0.2260
     35  O          7.8110  -34.6420  -19.7580 O.2    89  ARG89      -0.2867
     36  CB         8.8630  -37.4470  -21.2300 C.3    89  ARG89       0.0307
     37  CG         9.8630  -38.5980  -20.9220 C.3    89  ARG89       0.0489
     38  CD        10.6290  -39.0670  -22.1800 C.3    89  ARG89       0.2205
     39  NE        11.8170  -39.8440  -21.7990 N.pl3  89  ARG89      -0.0865
     40  CZ        12.7200  -40.3110  -22.6470 C.cat  89  ARG89       0.5346
     41  NH1       12.6040  -40.0410  -23.9400 N.pl3  89  ARG89       0.1354
     42  NH2       13.7510  -41.0130  -22.1890 N.pl3  89  ARG89       0.1354
     43  N          5.9410  -34.3330  -16.9070 N.3    92  ALA92      -0.1245
     44  CA         7.0340  -33.7290  -16.1320 C.3    92  ALA92       0.1562
     45  C          7.4280  -32.3500  -16.6700 C.2    92  ALA92       0.2260
     46  O          7.5010  -31.3880  -15.9180 O.2    92  ALA92      -0.2867
     47  CB         8.2340  -34.6750  -16.0650 C.3    92  ALA92       0.0290
     48  N          7.1220  -28.5550  -14.7440 N.3    96  GLN96      -0.1245
     49  CA         8.4870  -28.1740  -14.4340 C.3    96  GLN96       0.1566
     50  C          8.9110  -26.9100  -15.1300 C.2    96  GLN96       0.2260
     51  O          9.6530  -26.1230  -14.5530 O.2    96  GLN96      -0.2867
     52  CB         9.4700  -29.2940  -14.7420 C.3    96  GLN96       0.0367
     53  CG         9.3860  -30.4030  -13.6870 C.3    96  GLN96       0.0905
     54  CD        10.4240  -31.4650  -13.8610 C.2    96  GLN96       0.2608
     55  OE1       11.1820  -31.4550  -14.8150 O.2    96  GLN96      -0.2717
     56  NE2       10.4620  -32.4070  -12.9140 N.am   96  GLN96      -0.0878
     57  N         16.8480  -33.8390  -11.5310 N.3   118  GLY118     -0.1225
     58  CA        15.6120  -33.3360  -12.1650 C.3   118  GLY118      0.1811
     59  C         15.0750  -32.0880  -11.4880 C.2   118  GLY118      0.2280
     60  O         14.4420  -31.2460  -12.1510 O.2   118  GLY118     -0.2866
     61  N         22.9780  -37.2800  -12.0640 N.3   141  GLU141     -0.1245
     62  CA        22.6540  -38.1030  -13.2480 C.3   141  GLU141      0.1567
     63  C         23.8290  -38.9490  -13.7280 C.2   141  GLU141      0.2260
     64  O         23.6790  -40.1780  -13.9490 O.2   141  GLU141     -0.2867
     65  CB        22.1640  -37.2250  -14.4190 C.3   141  GLU141      0.0388
     66  CG        20.7560  -36.6950  -14.1970 C.3   141  GLU141      0.1160
     67  CD        20.6840  -35.3290  -13.5020 C.2   141  GLU141      0.3649
     68  OE1       21.6650  -34.9320  -12.8250 O.co2 141  GLU141     -0.2457
     69  OE2       19.6140  -34.6540  -13.6010 O.co2 141  GLU141     -0.2457
     70  N         23.1200  -41.8430  -16.4890 N.3   146  ILE146     -0.1245
     71  CA        22.4380  -41.1040  -17.5600 C.3   146  ILE146      0.1561
     72  C         22.9890  -39.6630  -17.6560 C.2   146  ILE146      0.2260
     73  O         23.4720  -39.1140  -16.6440 O.2   146  ILE146     -0.2867
     74  CB        20.8890  -41.0910  -17.3940 C.3   146  ILE146      0.0252
     75  CG1       20.5090  -40.5540  -16.0280 C.3   146  ILE146      0.0019
     76  CG2       20.3080  -42.5470  -17.5730 C.3   146  ILE146      0.0019
     77  CD1       19.2010  -39.7960  -15.9820 C.3   146  ILE146      0.0001
     78  N         18.5170  -35.4390  -17.9980 N.3   149  GLY149     -0.1210
     79  CA        17.3520  -35.5610  -18.8800 C.3   149  GLY149      0.1956
     80  C         16.4580  -34.3310  -18.7630 C.2   149  GLY149      0.2611
     81  O         16.7230  -33.3950  -17.9600 O.2   149  GLY149     -0.2717
     82  N         15.3980  -34.3060  -19.5610 N.am  150  ASN150     -0.1974
     83  CA        14.5120  -33.1540  -19.5330 C.3   150  ASN150      0.1688
     84  C         15.3620  -31.8730  -19.7110 C.2   150  ASN150      0.2292
     85  O         16.3290  -31.9030  -20.4870 O.2   150  ASN150     -0.2864
     86  CB        13.6500  -33.1300  -18.2290 C.3   150  ASN150      0.1181
     87  CG        12.3590  -32.3260  -18.4160 C.2   150  ASN150      0.2629
     88  OD1       12.3600  -31.0680  -18.3660 O.2   150  ASN150     -0.2716
     89  ND2       11.2670  -33.0430  -18.7040 N.am  150  ASN150     -0.0877
     90  N         17.2840  -30.1380  -17.4600 N.3   152  VAL152     -0.1245
     91  CA        18.3050  -29.9070  -16.4390 C.3   152  VAL152      0.1561
     92  C         19.5380  -29.1860  -17.0040 C.2   152  VAL152      0.2260
     93  O         20.0150  -28.2560  -16.3700 O.2   152  VAL152     -0.2867
     94  CB        18.7230  -31.2390  -15.7680 C.3   152  VAL152      0.0252
     95  CG1       19.8840  -31.0330  -14.7470 C.3   152  VAL152      0.0019
     96  CG2       17.4910  -31.8380  -15.0220 C.3   152  VAL152      0.0019
@<TRIPOS>BOND
     1    41    40    1
     2    40    42    1
     3    40    39    2
     4    38    39    1
     5    38    37    1
     6    36    37    1
     7    36    33    1
     8    85    84    2
     9    34    33    1
    10    34    35    2
    11    33    32    1
    12    84    83    1
    13    82    83    1
    14    82    80   am
    15    83    86    1
    16    79    80    1
    17    79    78    1
    18    80    81    2
    19    89    87   am
    20    87    88    2
    21    87    86    1
    22    72    71    1
    23    72    73    2
    24    76    74    1
    25    71    74    1
    26    71    70    1
    27    90    91    1
    28    74    75    1
    29    20    19    1
    30    92    91    1
    31    92    93    2
    32    43    44    1
    33    45    44    1
    34    45    46    2
    35    91    94    1
    36    44    47    1
    37    75    77    1
    38    19    17   ar
    39    19    18   ar
    40    94    96    1
    41    94    95    1
    42    17    15   ar
    43    30    28   ar
    44    30    31   ar
    45    28    26   ar
    46    24    23    2
    47    18    16   ar
    48    50    51    2
    49    50    49    1
    50    12    11    2
    51    55    54    2
    52    48    49    1
    53    52    49    1
    54    52    53    1
    55    31    29   ar
    56    65    66    1
    57    65    62    1
    58    15    14   ar
    59    23    22    1
    60    22    25    1
    61    22    21    1
    62    66    67    1
    63    26    25    1
    64    26    27   ar
    65    16    14   ar
    66    64    63    2
    67    54    53    1
    68    54    56   am
    69    63    62    1
    70    11    21   am
    71    11    10    1
    72    14    13    1
    73    69    67   ar
    74    67    68   ar
    75    62    61    1
    76    29    27   ar
    77     8     7    1
    78    10    13    1
    79    10     9    1
    80     6     7    1
    81     6     5    1
    82    58    57    1
    83    58    59    1
    84    60    59    2
    85     5     2    1
    86     2     1    1
    87     2     3    1
    88     3     4    2
