@<TRIPOS>MOLECULE
tmp/2vsyB01.pdb
 101 98 0 0 0
SMALL
GASTEIGER

@<TRIPOS>ATOM
      1  N         30.0300  -23.5840    0.2770 N.3   206  ALA206     -0.1245
      2  CA        31.0990  -24.5750    0.3350 C.3   206  ALA206      0.1562
      3  C         30.8950  -25.5410    1.5290 C.2   206  ALA206      0.2260
      4  O         31.2380  -26.7330    1.4760 O.2   206  ALA206     -0.2867
      5  CB        32.4860  -23.9100    0.3880 C.3   206  ALA206      0.0290
      6  N         30.5430  -29.5360    1.4840 N.3   210  ALA210     -0.1245
      7  CA        31.3680  -30.3760    2.3540 C.3   210  ALA210      0.1562
      8  C         30.4790  -31.3090    3.1880 C.2   210  ALA210      0.2260
      9  O         30.8080  -32.4950    3.3380 O.2   210  ALA210     -0.2867
     10  CB        32.2490  -29.5120    3.2690 C.3   210  ALA210      0.0290
     11  N         29.4280  -34.2980    1.2270 N.3   213  ARG213     -0.1245
     12  CA        30.5330  -35.2160    1.1970 C.3   213  ARG213      0.1563
     13  C         30.8580  -35.8750    2.5430 C.2   213  ARG213      0.2260
     14  O         31.2130  -37.0730    2.5910 O.2   213  ARG213     -0.2867
     15  CB        31.7840  -34.4870    0.7290 C.3   213  ARG213      0.0307
     16  CG        32.3340  -35.0040   -0.5770 C.3   213  ARG213      0.0489
     17  CD        33.7330  -34.4200   -0.8020 C.3   213  ARG213      0.2205
     18  NE        33.7510  -32.9850   -0.5100 N.pl3 213  ARG213     -0.0865
     19  CZ        34.4490  -32.4210    0.4840 C.cat 213  ARG213      0.5346
     20  NH1       34.4080  -31.1080    0.6400 N.pl3 213  ARG213      0.1354
     21  NH2       35.2000  -33.1600    1.3130 N.pl3 213  ARG213      0.1354
     22  N         35.2670  -21.2080    0.1280 N.3   338  THR338     -0.1218
     23  CA        36.6740  -21.4340   -0.0110 C.3   338  THR338      0.1862
     24  C         36.9370  -22.0110   -1.3820 C.2   338  THR338      0.2287
     25  O         38.0710  -22.3870   -1.6690 O.2   338  THR338     -0.2866
     26  CB        37.1940  -22.4590    1.0580 C.3   338  THR338      0.1770
     27  OG1       36.4230  -23.6800    0.9590 O.3   338  THR338     -0.2211
     28  CG2       37.0910  -21.8650    2.4420 C.3   338  THR338      0.0375
     29  N         40.0510  -13.8140    3.1550 N.3   454  TRP454     -0.1241
     30  CA        40.2070  -14.8160    2.1140 C.3   454  TRP454      0.1605
     31  C         41.2030  -14.3530    1.0660 C.2   454  TRP454      0.2264
     32  O         42.0010  -15.1530    0.6070 O.2   454  TRP454     -0.2867
     33  CB        38.8810  -15.0750    1.4100 C.3   454  TRP454      0.0550
     34  CG        39.0230  -16.0850    0.3000 C.ar  454  TRP454      0.0003
     35  CD1       38.8100  -15.8760   -1.0360 C.ar  454  TRP454      0.0946
     36  CD2       39.4450  -17.4570    0.4380 C.ar  454  TRP454      0.0152
     37  NE1       39.0140  -17.0710   -1.7160 N.ar  454  TRP454     -0.2442
     38  CE2       39.3930  -18.0410   -0.8240 C.ar  454  TRP454      0.0810
     39  CE3       39.8240  -18.2450    1.5270 C.ar  454  TRP454      0.0012
     40  CZ2       39.7930  -19.3610   -1.0620 C.ar  454  TRP454      0.0191
     41  CZ3       40.1910  -19.5540    1.3050 C.ar  454  TRP454      0.0001
     42  CH2       40.1680  -20.1150    0.0190 C.ar  454  TRP454      0.0015
     43  N         46.1000  -17.8340    7.0730 N.3   517  ARG517     -0.1231
     44  CA        45.0490  -18.1610    6.1670 C.3   517  ARG517      0.1694
     45  C         45.0220  -19.6560    5.8230 C.2   517  ARG517      0.2591
     46  O         43.9410  -20.2080    5.6820 O.2   517  ARG517     -0.2718
     47  CB        45.2490  -17.3210    4.9320 C.3   517  ARG517      0.0321
     48  CG        44.2390  -17.4510    3.8980 C.3   517  ARG517      0.0489
     49  CD        44.6900  -16.5770    2.6950 C.3   517  ARG517      0.2205
     50  NE        43.7820  -16.9160    1.6420 N.pl3 517  ARG517     -0.0865
     51  CZ        43.9380  -17.9500    0.8530 C.cat 517  ARG517      0.5346
     52  NH1       45.0080  -18.7210    0.9640 N.pl3 517  ARG517      0.1354
     53  NH2       43.0180  -18.1960   -0.0520 N.pl3 517  ARG517      0.1354
     54  N         46.1700  -20.3240    5.7210 N.am  518  ARG518     -0.1980
     55  CA        46.1720  -21.7900    5.5170 C.3   518  ARG518      0.1597
     56  C         46.5000  -22.5880    6.7820 C.2   518  ARG518      0.2287
     57  O         46.1850  -23.7940    6.8820 O.2   518  ARG518     -0.2864
     58  CB        47.1710  -22.2050    4.4310 C.3   518  ARG518      0.0334
     59  CG        48.6200  -21.8770    4.7660 C.3   518  ARG518      0.0492
     60  CD        49.6370  -22.8650    4.1700 C.3   518  ARG518      0.2205
     61  NE        50.8300  -22.8020    4.9960 N.pl3 518  ARG518     -0.0865
     62  CZ        51.0430  -23.5990    6.0350 C.cat 518  ARG518      0.5346
     63  NH1       50.1370  -24.5320    6.3740 N.pl3 518  ARG518      0.1354
     64  NH2       52.1520  -23.4550    6.7490 N.pl3 518  ARG518      0.1354
     65  N         39.5010  -21.3180    7.3440 N.3   523  PHE523     -0.1227
     66  CA        39.1070  -21.5700    5.9650 C.3   523  PHE523      0.1736
     67  C         39.1440  -23.0410    5.5450 C.2   523  PHE523      0.2595
     68  O         39.3940  -23.3420    4.3830 O.2   523  PHE523     -0.2718
     69  CB        39.9440  -20.7390    5.0050 C.3   523  PHE523      0.0547
     70  CG        39.7010  -19.2740    5.1260 C.ar  523  PHE523     -0.0202
     71  CD1       38.4360  -18.7530    4.8930 C.ar  523  PHE523     -0.0042
     72  CD2       40.7110  -18.4250    5.5270 C.ar  523  PHE523     -0.0042
     73  CE1       38.1650  -17.3700    5.0370 C.ar  523  PHE523     -0.0003
     74  CE2       40.4450  -17.0460    5.6820 C.ar  523  PHE523     -0.0003
     75  CZ        39.1620  -16.5340    5.4300 C.ar  523  PHE523     -0.0000
     76  N         38.9310  -23.9580    6.4770 N.am  524  HIS524     -0.1961
     77  CA        38.8320  -25.3740    6.1020 C.3   524  HIS524      0.1787
     78  C         37.4210  -25.9290    6.3290 C.2   524  HIS524      0.2620
     79  O         37.0410  -26.3560    7.4180 O.2   524  HIS524     -0.2715
     80  CB        39.9440  -26.1960    6.7630 C.3   524  HIS524      0.0785
     81  CG        41.3060  -25.7710    6.3180 C.ar  524  HIS524      0.0821
     82  ND1       42.1220  -26.5680    5.5430 N.ar  524  HIS524     -0.2267
     83  CD2       41.9580  -24.5920    6.4610 C.ar  524  HIS524      0.1154
     84  CE1       43.2340  -25.9120    5.2690 C.ar  524  HIS524      0.1986
     85  NE2       43.1560  -24.7110    5.8050 N.ar  524  HIS524     -0.2212
     86  N         36.6320  -25.9340    5.2510 N.am  525  MET525     -0.1963
     87  CA        35.2250  -26.2300    5.4220 C.3   525  MET525      0.1736
     88  C         35.0390  -27.7220    5.6810 C.2   525  MET525      0.2616
     89  O         33.9780  -28.1190    6.1500 O.2   525  MET525     -0.2715
     90  CB        34.3630  -25.7510    4.2150 C.3   525  MET525      0.0427
     91  CG        34.2950  -24.1970    4.0520 C.3   525  MET525      0.0599
     92  SD        33.5810  -23.4870    5.5490 S.3   525  MET525     -0.1393
     93  CE        35.0100  -22.8780    6.3880 C.3   525  MET525      0.0692
     94  N         36.0120  -28.5360    5.3200 N.am  526  ASP526     -0.1971
     95  CA        35.8910  -29.9830    5.6750 C.3   526  ASP526      0.1709
     96  C         35.8450  -30.1670    7.2160 C.2   526  ASP526      0.2293
     97  O         34.9910  -30.8910    7.7470 O.2   526  ASP526     -0.2864
     98  CB        36.9980  -30.8240    5.0310 C.3   526  ASP526      0.1436
     99  CG        36.6350  -31.2920    3.6010 C.2   526  ASP526      0.3671
    100  OD1       35.6100  -30.8370    3.0310 O.co2 526  ASP526     -0.2456
    101  OD2       37.3510  -32.1720    3.0440 O.co2 526  ASP526     -0.2456
@<TRIPOS>BOND
     1    37    35   ar
     2    37    38   ar
     3    25    24    2
     4    24    23    1
     5    40    38   ar
     6    40    42   ar
     7    35    34   ar
     8    38    36   ar
     9    17    16    1
    10    17    18    1
    11    16    15    1
    12    18    19    2
    13    53    51    1
    14    23    22    1
    15    23    26    1
    16    42    41   ar
    17     1     2    1
    18    34    36   ar
    19    34    33    1
    20     2     5    1
    21     2     3    1
    22    36    39   ar
    23    19    20    1
    24    19    21    1
    25    32    31    2
    26    15    12    1
    27    51    52    1
    28    51    50    2
    29    27    26    1
    30    26    28    1
    31    31    30    1
    32    12    11    1
    33    12    13    1
    34    41    39   ar
    35    33    30    1
    36     4     3    2
    37     6     7    1
    38    50    49    1
    39    30    29    1
    40     7     8    1
    41     7    10    1
    42    13    14    2
    43    49    48    1
    44   100    99   ar
    45   101    99   ar
    46     8     9    2
    47    99    98    1
    48    48    47    1
    49    91    90    1
    50    91    92    1
    51    60    59    1
    52    60    61    1
    53    90    87    1
    54    68    67    2
    55    58    59    1
    56    58    55    1
    57    71    73   ar
    58    71    70   ar
    59    47    44    1
    60    61    62    2
    61    69    70    1
    62    69    66    1
    63    98    95    1
    64    73    75   ar
    65    70    72   ar
    66    86    87    1
    67    86    78   am
    68    84    82   ar
    69    84    85   ar
    70    94    95    1
    71    94    88   am
    72    87    88    1
    73    75    74   ar
    74    55    54    1
    75    55    56    1
    76    72    74   ar
    77    82    81   ar
    78    67    66    1
    79    67    76   am
    80    92    93    1
    81    95    96    1
    82    88    89    2
    83    46    45    2
    84    54    45   am
    85    85    83   ar
    86    45    44    1
    87    66    65    1
    88    62    63    1
    89    62    64    1
    90    77    78    1
    91    77    76    1
    92    77    80    1
    93    44    43    1
    94    81    83   ar
    95    81    80    1
    96    78    79    2
    97    56    57    2
    98    96    97    2
