@<TRIPOS>MOLECULE
tmp/2vsyB00.pdb
 75 74 0 0 0
SMALL
GASTEIGER

@<TRIPOS>ATOM
      1  N         40.3510  -13.4680   -9.1880 N.3   343  ALA343     -0.1231
      2  CA        40.9230  -12.9170  -10.4150 C.3   343  ALA343      0.1694
      3  C         41.8930  -11.7610  -10.1500 C.2   343  ALA343      0.2592
      4  O         41.8590  -11.1170   -9.1200 O.2   343  ALA343     -0.2718
      5  CB        39.7930  -12.4340  -11.3280 C.3   343  ALA343      0.0304
      6  N         42.7410  -11.4780  -11.1280 N.am  344  GLU344     -0.1966
      7  CA        43.5490  -10.2720  -11.1460 C.3   344  GLU344      0.1718
      8  C         42.6690   -9.0910  -11.5380 C.2   344  GLU344      0.2458
      9  O         41.9650   -9.1430  -12.5320 O.2   344  GLU344     -0.2730
     10  CB        44.6950  -10.4460  -12.1650 C.3   344  GLU344      0.0428
     11  CG        45.2090   -9.1490  -12.7570 C.3   344  GLU344      0.1163
     12  CD        46.2480   -9.3760  -13.8680 C.2   344  GLU344      0.3649
     13  OE1       46.3650  -10.5300  -14.3850 O.co2 344  GLU344     -0.2457
     14  OE2       46.9360   -8.3950  -14.2230 O.co2 344  GLU344     -0.2457
     15  N         42.6920   -8.0140  -10.7510 N.am  345  PRO345     -0.2716
     16  CA        41.8400   -6.9260  -11.1920 C.3   345  PRO345      0.1521
     17  C         42.5270   -6.0800  -12.2500 C.2   345  PRO345      0.2440
     18  O         43.6590   -6.3260  -12.5990 O.2   345  PRO345     -0.2731
     19  CB        41.6850   -6.0670   -9.9310 C.3   345  PRO345      0.0310
     20  CG        42.9880   -6.2910   -9.1920 C.3   345  PRO345      0.0237
     21  CD        43.3780   -7.7340   -9.4730 C.3   345  PRO345      0.0939
     22  N         41.8110   -5.0920  -12.7720 N.am  346  PRO346     -0.2716
     23  CA        42.3480   -4.0720  -13.6720 C.3   346  PRO346      0.1536
     24  C         43.4300   -3.2750  -12.9250 C.2   346  PRO346      0.2599
     25  O         43.6100   -3.4850  -11.7410 O.2   346  PRO346     -0.2715
     26  CB        41.1420   -3.1550  -13.9270 C.3   346  PRO346      0.0310
     27  CG        39.9500   -3.9910  -13.7150 C.3   346  PRO346      0.0237
     28  CD        40.3610   -4.9470  -12.5520 C.3   346  PRO346      0.0939
     29  N         44.1190   -2.3460  -13.5880 N.am  347  SER347     -0.1950
     30  CA        45.2020   -1.6310  -12.9240 C.3   347  SER347      0.1924
     31  C         44.6160   -0.7390  -11.8560 C.2   347  SER347      0.2314
     32  O         43.3990   -0.5040  -11.8110 O.2   347  SER347     -0.2863
     33  CB        45.9730   -0.7680  -13.9360 C.3   347  SER347      0.2116
     34  OG        45.1130    0.2560  -14.4150 O.3   347  SER347     -0.2180
     35  N         42.7220    2.0930  -13.5190 N.3   350  GLN350     -0.1245
     36  CA        41.4210    1.6840  -13.9940 C.3   350  GLN350      0.1566
     37  C         40.4100    1.4870  -12.8630 C.2   350  GLN350      0.2260
     38  O         39.2160    1.5770  -13.0870 O.2   350  GLN350     -0.2867
     39  CB        41.5620    0.3730  -14.8090 C.3   350  GLN350      0.0367
     40  CG        42.4530    0.5210  -16.0640 C.3   350  GLN350      0.0905
     41  CD        42.6300   -0.7920  -16.8160 C.2   350  GLN350      0.2608
     42  OE1       43.1900   -1.7680  -16.2900 O.2   350  GLN350     -0.2717
     43  NE2       42.1410   -0.8310  -18.0510 N.am  350  GLN350     -0.0878
     44  N         32.4160  -11.7630   -8.1750 N.3   425  PRO425     -0.2102
     45  CA        33.8360  -12.1180   -8.5610 C.3   425  PRO425      0.1504
     46  C         34.7070  -10.9150   -8.9150 C.2   425  PRO425      0.2575
     47  O         35.9100  -10.8880   -8.6280 O.2   425  PRO425     -0.2718
     48  CB        33.6400  -12.9690   -9.8030 C.3   425  PRO425      0.0282
     49  CG        32.2440  -13.6180   -9.5740 C.3   425  PRO425      0.0208
     50  CD        31.4410  -12.4350   -9.0600 C.3   425  PRO425      0.0893
     51  N         34.1100   -9.9380   -9.5810 N.am  426  GLN426     -0.1980
     52  CA        34.8030   -8.7300   -9.9370 C.3   426  GLN426      0.1601
     53  C         35.1280   -7.8530   -8.7110 C.2   426  GLN426      0.2287
     54  O         36.2430   -7.3240   -8.6010 O.2   426  GLN426     -0.2864
     55  CB        33.9950   -7.9510  -10.9860 C.3   426  GLN426      0.0394
     56  CG        33.7740   -8.7270  -12.2580 C.3   426  GLN426      0.0908
     57  CD        32.8610   -8.0260  -13.2360 C.2   426  GLN426      0.2608
     58  OE1       32.9270   -6.8230  -13.4020 O.2   426  GLN426     -0.2717
     59  NE2       31.9930   -8.7970  -13.8950 N.am  426  GLN426     -0.0878
     60  N         37.9910   -9.3620   -6.7210 N.3   429  ALA429     -0.1231
     61  CA        39.3020   -9.1240   -7.3680 C.3   429  ALA429      0.1694
     62  C         39.9230   -7.8000   -6.8640 C.2   429  ALA429      0.2591
     63  O         41.1400   -7.6740   -6.7610 O.2   429  ALA429     -0.2718
     64  CB        39.1550   -9.1290   -8.9180 C.3   429  ALA429      0.0304
     65  N         39.0930   -6.8380   -6.4980 N.am  430  ARG430     -0.1980
     66  CA        39.6080   -5.5220   -6.1010 C.3   430  ARG430      0.1597
     67  C         40.4210   -5.5180   -4.7770 C.2   430  ARG430      0.2287
     68  O         41.1930   -4.5750   -4.5190 O.2   430  ARG430     -0.2864
     69  CB        38.4650   -4.4980   -5.9890 C.3   430  ARG430      0.0334
     70  CG        37.5160   -4.4090   -7.2180 C.3   430  ARG430      0.0492
     71  CD        38.2760   -3.8920   -8.3950 C.3   430  ARG430      0.2205
     72  NE        37.5160   -3.3310   -9.5220 N.pl3 430  ARG430     -0.0865
     73  CZ        37.1160   -4.0600  -10.5630 C.cat 430  ARG430      0.5346
     74  NH1       37.2950   -5.3900  -10.5780 N.pl3 430  ARG430      0.1354
     75  NH2       36.4880   -3.4740  -11.5630 N.pl3 430  ARG430      0.1354
@<TRIPOS>BOND
     1    43    41   am
     2    41    42    2
     3    41    40    1
     4    40    39    1
     5    39    36    1
     6    34    33    1
     7    13    12   ar
     8    14    12   ar
     9    36    35    1
    10    36    37    1
    11    33    30    1
    12    26    27    1
    13    26    23    1
    14    59    57   am
    15    12    11    1
    16    27    28    1
    17    23    24    1
    18    23    22    1
    19    29    24   am
    20    29    30    1
    21    58    57    2
    22    57    56    1
    23    38    37    2
    24    24    25    2
    25    30    31    1
    26    22    28    1
    27    22    17   am
    28    11    10    1
    29    18    17    2
    30     9     8    2
    31    56    55    1
    32    17    16    1
    33    10     7    1
    34    31    32    2
    35    75    73    1
    36     8     7    1
    37     8    15   am
    38     5     2    1
    39    16    15    1
    40    16    19    1
    41     7     6    1
    42     6     3   am
    43    55    52    1
    44    15    21    1
    45    74    73    1
    46    73    72    2
    47     2     3    1
    48     2     1    1
    49     3     4    2
    50    52    51    1
    51    52    53    1
    52    19    20    1
    53    48    49    1
    54    48    45    1
    55    51    46   am
    56    49    50    1
    57    72    71    1
    58    21    20    1
    59    50    44    1
    60    64    61    1
    61    46    47    2
    62    46    45    1
    63    53    54    2
    64    45    44    1
    65    71    70    1
    66    61    62    1
    67    61    60    1
    68    70    69    1
    69    62    63    2
    70    62    65   am
    71    65    66    1
    72    66    69    1
    73    66    67    1
    74    67    68    2
