@<TRIPOS>MOLECULE
tmp/2vt2B00.pdb
 118 112 0 0 0
SMALL
GASTEIGER

@<TRIPOS>ATOM
      1  N         15.5420    1.7550  -14.7770 N.3    82  ILE82      -0.1231
      2  CA        14.4090    0.8390  -14.8930 C.3    82  ILE82       0.1692
      3  C         13.4590    1.3860  -15.9370 C.2    82  ILE82       0.2593
      4  O         12.9740    2.5120  -15.7970 O.2    82  ILE82      -0.2718
      5  CB        13.6460    0.6580  -13.5430 C.3    82  ILE82       0.0266
      6  CG1       14.6280    0.5470  -12.3590 C.3    82  ILE82       0.0019
      7  CG2       12.6680   -0.5110  -13.6290 C.3    82  ILE82       0.0020
      8  CD1       15.2100   -0.8190  -12.1230 C.3    82  ILE82       0.0001
      9  N         13.2110    0.5830  -16.9710 N.am   83  GLY83      -0.1942
     10  CA        12.2670    0.9100  -18.0380 C.3    83  GLY83       0.2014
     11  C         12.9900    1.3700  -19.2930 C.2    83  GLY83       0.2639
     12  O         13.4380    2.5270  -19.3680 O.2    83  GLY83      -0.2714
     13  N         13.1230    0.4770  -20.2730 N.am   84  VAL84      -0.1963
     14  CA        13.9360    0.7710  -21.4720 C.3    84  VAL84       0.1727
     15  C         13.0600    1.0520  -22.7110 C.2    84  VAL84       0.2617
     16  O         13.2270    0.4540  -23.7720 O.2    84  VAL84      -0.2715
     17  CB        15.0510   -0.3070  -21.7010 C.3    84  VAL84       0.0290
     18  CG1       15.9730    0.0640  -22.8610 C.3    84  VAL84       0.0023
     19  CG2       15.8910   -0.4970  -20.4150 C.3    84  VAL84       0.0023
     20  N         12.1130    1.9750  -22.5470 N.am   85  GLY85      -0.1940
     21  CA        11.2870    2.4610  -23.6450 C.3    85  GLY85       0.2014
     22  C         11.9520    3.6640  -24.2650 C.2    85  GLY85       0.2639
     23  O         13.1700    3.7970  -24.1770 O.2    85  GLY85      -0.2714
     24  N         11.1570    4.5430  -24.8790 N.am   86  ASN86      -0.1958
     25  CA        11.6620    5.7430  -25.5640 C.3    86  ASN86       0.1819
     26  C         12.5770    6.6080  -24.6810 C.2    86  ASN86       0.2621
     27  O         13.7300    6.8300  -25.0250 O.2    86  ASN86      -0.2715
     28  CB        10.5010    6.5870  -26.0970 C.3    86  ASN86       0.1195
     29  CG         9.7760    5.9520  -27.2950 C.2    86  ASN86       0.2630
     30  OD1       10.3860    5.5420  -28.2960 O.2    86  ASN86      -0.2716
     31  ND2        8.4490    5.9160  -27.2020 N.am   86  ASN86      -0.0877
     32  N         12.0650    7.0730  -23.5390 N.am   87  LEU87      -0.1963
     33  CA        12.8390    7.8920  -22.6020 C.3    87  LEU87       0.1728
     34  C         14.0490    7.1280  -22.0300 C.2    87  LEU87       0.2616
     35  O         15.1850    7.6050  -22.0970 O.2    87  LEU87      -0.2715
     36  CB        11.9220    8.3990  -21.4720 C.3    87  LEU87       0.0311
     37  CG        12.3080    9.6050  -20.6100 C.3    87  LEU87       0.0022
     38  CD1       12.3710   10.9130  -21.4370 C.3    87  LEU87       0.0001
     39  CD2       11.2940    9.7400  -19.4830 C.3    87  LEU87       0.0001
     40  N         13.7980    5.9360  -21.4840 N.am   88  GLY88      -0.1955
     41  CA        14.8690    5.0410  -21.0630 C.3    88  GLY88       0.1869
     42  C         15.9750    4.8090  -22.0830 C.2    88  GLY88       0.2309
     43  O         17.1420    4.8370  -21.7220 O.2    88  GLY88      -0.2863
     44  N         14.1960   -4.1110  -17.5720 N.3   109  ASP109     -0.1225
     45  CA        12.9000   -4.0600  -18.2370 C.3   109  ASP109      0.1805
     46  C         12.0740   -5.3310  -17.9710 C.2   109  ASP109      0.2598
     47  O         12.5490   -6.2650  -17.3100 O.2   109  ASP109     -0.2718
     48  CB        13.0720   -3.7830  -19.7390 C.3   109  ASP109      0.1424
     49  CG        11.8650   -3.0610  -20.3400 C.2   109  ASP109      0.3668
     50  OD1       10.8910   -3.7460  -20.7570 O.co2 109  ASP109     -0.2456
     51  OD2       11.8830   -1.8080  -20.3790 O.co2 109  ASP109     -0.2456
     52  N         10.8340   -5.3550  -18.4530 N.am  110  ILE110     -0.1966
     53  CA        10.0110   -6.5820  -18.4050 C.3   110  ILE110      0.1727
     54  C          9.7040   -7.1940  -19.7910 C.2   110  ILE110      0.2616
     55  O          9.2060   -8.3160  -19.8770 O.2   110  ILE110     -0.2715
     56  CB         8.7030   -6.4050  -17.5720 C.3   110  ILE110      0.0290
     57  CG1        7.8420   -5.2590  -18.1240 C.3   110  ILE110      0.0022
     58  CG2        9.0250   -6.2080  -16.0910 C.3   110  ILE110      0.0023
     59  CD1        6.4010   -5.3260  -17.7150 C.3   110  ILE110      0.0001
     60  N         10.0250   -6.4590  -20.8560 N.am  111  ASN111     -0.1972
     61  CA         9.8250   -6.9000  -22.2520 C.3   111  ASN111      0.1688
     62  C         10.9220   -7.8650  -22.7100 C.2   111  ASN111      0.2292
     63  O         12.0920   -7.4850  -22.7480 O.2   111  ASN111     -0.2864
     64  CB         9.7900   -5.6630  -23.1700 C.3   111  ASN111      0.1181
     65  CG         9.6420   -5.9950  -24.6690 C.2   111  ASN111      0.2629
     66  OD1        9.7920   -7.1540  -25.1300 O.2   111  ASN111     -0.2716
     67  ND2        9.3480   -4.9470  -25.4430 N.am  111  ASN111     -0.0877
     68  N         13.4620   -6.5350  -24.9810 N.3   114  LYS114     -0.1245
     69  CA        14.3960   -5.6430  -24.3010 C.3   114  LYS114      0.1561
     70  C         15.4030   -6.5300  -23.5670 C.2   114  LYS114      0.2260
     71  O         16.5880   -6.5480  -23.9080 O.2   114  LYS114     -0.2867
     72  CB        13.6920   -4.7090  -23.3030 C.3   114  LYS114      0.0271
     73  CG        12.5940   -3.8160  -23.8620 C.3   114  LYS114      0.0035
     74  CD        13.0640   -2.9320  -25.0040 C.3   114  LYS114      0.0206
     75  CE        11.9980   -1.9090  -25.3550 C.3   114  LYS114      0.1093
     76  NZ        12.3640   -1.1730  -26.5870 N.3   114  LYS114     -0.1314
     77  N         13.5870   -7.4730  -15.1220 N.3   127  LEU127     -0.1245
     78  CA        13.3280   -6.7930  -13.8390 C.3   127  LEU127      0.1561
     79  C         13.1580   -7.7640  -12.6590 C.2   127  LEU127      0.2260
     80  O         13.3250   -7.3570  -11.5070 O.2   127  LEU127     -0.2867
     81  CB        12.1510   -5.8120  -13.9230 C.3   127  LEU127      0.0270
     82  CG        11.7270   -5.0930  -12.6170 C.3   127  LEU127      0.0019
     83  CD1       12.7560   -4.0630  -12.1030 C.3   127  LEU127      0.0001
     84  CD2       10.3620   -4.4470  -12.7470 C.3   127  LEU127      0.0001
     85  N         11.7920    5.2160  -15.5110 N.3   143  THR143     -0.1203
     86  CA        11.1420    5.6290  -16.7550 C.3   143  THR143      0.1994
     87  C         10.1170    4.5950  -17.1700 C.2   143  THR143      0.2618
     88  O         10.0010    4.2600  -18.3600 O.2   143  THR143     -0.2717
     89  CB        12.1580    5.8570  -17.9150 C.3   143  THR143      0.1784
     90  OG1       12.9720    4.6910  -18.0980 O.3   143  THR143     -0.2211
     91  CG2       13.0550    7.0120  -17.6190 C.3   143  THR143      0.0376
     92  N          9.3890    4.0700  -16.1900 N.am  144  VAL144     -0.1966
     93  CA         8.3400    3.0930  -16.4230 C.3   144  VAL144      0.1712
     94  C          6.9830    3.8260  -16.4490 C.2   144  VAL144      0.2458
     95  O          6.9120    4.9990  -16.0430 O.2   144  VAL144     -0.2730
     96  CB         8.3450    1.9970  -15.3150 C.3   144  VAL144      0.0289
     97  CG1        9.6320    1.1420  -15.3910 C.3   144  VAL144      0.0023
     98  CG2        8.1580    2.6250  -13.9120 C.3   144  VAL144      0.0023
     99  N          5.9190    3.1660  -16.9580 N.am  145  PRO145     -0.2727
    100  CA         4.5540    3.6960  -16.7740 C.3   145  PRO145      0.1402
    101  C          4.2580    3.9760  -15.2990 C.2   145  PRO145      0.2269
    102  O          4.7880    3.2810  -14.4260 O.2   145  PRO145     -0.2865
    103  CB         3.6480    2.5730  -17.3040 C.3   145  PRO145      0.0296
    104  CG         4.5390    1.4110  -17.6100 C.3   145  PRO145      0.0237
    105  CD         5.9230    1.9360  -17.7720 C.3   145  PRO145      0.0939
    106  N          3.4420    1.0960  -12.5480 N.3   148  ALA148     -0.1245
    107  CA         4.4260    0.1240  -12.0770 C.3   148  ALA148      0.1562
    108  C          5.4190    0.7310  -11.0730 C.2   148  ALA148      0.2260
    109  O          6.1650    0.0180  -10.3850 O.2   148  ALA148     -0.2867
    110  CB         5.1610   -0.4600  -13.2590 C.3   148  ALA148      0.0290
    111  N          8.1940   -0.9800   -7.8080 N.3   152  ILE152     -0.1245
    112  CA         9.5960   -0.9470   -8.2200 C.3   152  ILE152      0.1561
    113  C         10.4050   -0.0850   -7.2490 C.2   152  ILE152      0.2260
    114  O         11.5100   -0.4660   -6.8550 O.2   152  ILE152     -0.2867
    115  CB         9.7670   -0.3930   -9.6710 C.3   152  ILE152      0.0252
    116  CG1        9.2530   -1.3960  -10.7050 C.3   152  ILE152      0.0019
    117  CG2       11.2230   -0.0780   -9.9790 C.3   152  ILE152      0.0019
    118  CD1        9.0510   -0.7690  -12.0930 C.3   152  ILE152      0.0001
@<TRIPOS>BOND
     1    30    29    2
     2    29    31   am
     3    29    28    1
     4    76    75    1
     5    28    25    1
     6    25    24    1
     7    25    26    1
     8    67    65   am
     9    75    74    1
    10    66    65    2
    11    27    26    2
    12    74    73    1
    13    68    69    1
    14    24    22   am
    15    26    32   am
    16    65    64    1
    17    69    70    1
    18    69    72    1
    19    22    23    2
    20    22    21    1
    21    71    70    2
    22    73    72    1
    23    16    15    2
    24    21    20    1
    25    32    33    1
    26    64    61    1
    27    18    17    1
    28    63    62    2
    29    15    20   am
    30    15    14    1
    31    62    61    1
    32    33    34    1
    33    33    36    1
    34    61    60    1
    35    35    34    2
    36    42    43    2
    37    42    41    1
    38    34    40   am
    39    17    14    1
    40    17    19    1
    41    40    41    1
    42    36    37    1
    43    14    13    1
    44    38    37    1
    45    60    54   am
    46    50    49   ar
    47    37    39    1
    48    51    49   ar
    49    49    48    1
    50    13    11   am
    51    55    54    2
    52    54    53    1
    53    48    45    1
    54    12    11    2
    55    11    10    1
    56    52    53    1
    57    52    46   am
    58    53    56    1
    59    88    87    2
    60    45    46    1
    61    45    44    1
    62    57    59    1
    63    57    56    1
    64    90    89    1
    65    10     9    1
    66    46    47    2
    67    89    91    1
    68    89    86    1
    69   105   104    1
    70   105    99    1
    71   104   103    1
    72    56    58    1
    73   103   100    1
    74    87    86    1
    75    87    92   am
    76     9     3   am
    77    99   100    1
    78    99    94   am
    79   100   101    1
    80    86    85    1
    81    94    93    1
    82    94    95    2
    83    93    92    1
    84    93    96    1
    85     3     4    2
    86     3     2    1
    87    97    96    1
    88    96    98    1
    89   101   102    2
    90    77    78    1
    91     2     1    1
    92     2     5    1
    93    81    78    1
    94    81    82    1
    95    78    79    1
    96     7     5    1
    97     5     6    1
    98   110   107    1
    99    84    82    1
   100    79    80    2
   101    82    83    1
   102   106   107    1
   103     6     8    1
   104   118   116    1
   105   107   108    1
   106   108   109    2
   107   116   115    1
   108   117   115    1
   109   115   112    1
   110   112   111    1
   111   112   113    1
   112   113   114    2
