@<TRIPOS>MOLECULE
tmp/2vt3B00.pdb
 118 112 0 0 0
SMALL
GASTEIGER

@<TRIPOS>ATOM
      1  N         15.6490    1.7580  -14.8720 N.3    85  ILE85      -0.1231
      2  CA        14.5350    0.8640  -15.0310 C.3    85  ILE85       0.1692
      3  C         13.5840    1.3600  -16.1050 C.2    85  ILE85       0.2592
      4  O         13.0250    2.4490  -15.9980 O.2    85  ILE85      -0.2718
      5  CB        13.7990    0.6530  -13.6950 C.3    85  ILE85       0.0266
      6  CG1       14.8460    0.3270  -12.6030 C.3    85  ILE85       0.0019
      7  CG2       12.7060   -0.4240  -13.8610 C.3    85  ILE85       0.0020
      8  CD1       14.4950   -0.7520  -11.6900 C.3    85  ILE85       0.0001
      9  N         13.4020    0.5320  -17.1370 N.am   86  GLY86      -0.1957
     10  CA        12.4540    0.7910  -18.2210 C.3    86  GLY86       0.1869
     11  C         13.1840    1.2970  -19.4440 C.2    86  GLY86       0.2309
     12  O         13.4790    2.4790  -19.5400 O.2    86  GLY86      -0.2863
     13  N         12.4090    1.9550  -22.6400 N.3    88  GLY88      -0.1210
     14  CA        11.5030    2.3960  -23.7090 C.3    88  GLY88       0.1956
     15  C         12.1650    3.5470  -24.4270 C.2    88  GLY88       0.2612
     16  O         13.3690    3.6520  -24.4230 O.2    88  GLY88      -0.2717
     17  N         11.3810    4.4150  -25.0490 N.am   89  ASN89      -0.1960
     18  CA        11.9390    5.5680  -25.7710 C.3    89  ASN89       0.1819
     19  C         12.8540    6.4060  -24.8730 C.2    89  ASN89       0.2621
     20  O         14.0060    6.6470  -25.1890 O.2    89  ASN89      -0.2715
     21  CB        10.7990    6.4260  -26.3330 C.3    89  ASN89       0.1195
     22  CG        10.1020    5.7720  -27.5130 C.2    89  ASN89       0.2630
     23  OD1       10.7540    5.3840  -28.4790 O.2    89  ASN89      -0.2716
     24  ND2        8.7680    5.6530  -27.4410 N.am   89  ASN89      -0.0877
     25  N         12.3240    6.8270  -23.7360 N.am   90  LEU90      -0.1977
     26  CA        13.0440    7.6650  -22.7990 C.3    90  LEU90       0.1596
     27  C         14.2650    6.9820  -22.1970 C.2    90  LEU90       0.2287
     28  O         15.3570    7.5610  -22.1430 O.2    90  LEU90      -0.2864
     29  CB        12.1010    8.1000  -21.6850 C.3    90  LEU90       0.0297
     30  CG        12.5250    9.2870  -20.8160 C.3    90  LEU90       0.0022
     31  CD1       12.8620   10.5080  -21.6840 C.3    90  LEU90       0.0001
     32  CD2       11.4320    9.6100  -19.7910 C.3    90  LEU90       0.0001
     33  N         17.0520   -2.4700  -16.3680 N.3   111  PHE111     -0.1227
     34  CA        16.0340   -3.5020  -16.2480 C.3   111  PHE111      0.1736
     35  C         14.7720   -3.1970  -17.0520 C.2   111  PHE111      0.2595
     36  O         14.3690   -2.0280  -17.2050 O.2   111  PHE111     -0.2718
     37  CB        15.6730   -3.7400  -14.7830 C.3   111  PHE111      0.0547
     38  CG        16.8610   -4.1010  -13.9240 C.ar  111  PHE111     -0.0202
     39  CD1       17.7140   -3.1080  -13.4460 C.ar  111  PHE111     -0.0042
     40  CD2       17.1330   -5.4200  -13.6040 C.ar  111  PHE111     -0.0042
     41  CE1       18.8400   -3.4300  -12.6750 C.ar  111  PHE111     -0.0003
     42  CE2       18.2430   -5.7360  -12.8330 C.ar  111  PHE111     -0.0003
     43  CZ        19.0890   -4.7460  -12.3620 C.ar  111  PHE111     -0.0000
     44  N         14.1670   -4.2660  -17.5730 N.am  112  ASP112     -0.1960
     45  CA        12.8880   -4.1950  -18.2960 C.3   112  ASP112      0.1840
     46  C         12.0970   -5.5020  -18.0640 C.2   112  ASP112      0.2622
     47  O         12.6330   -6.4490  -17.4840 O.2   112  ASP112     -0.2715
     48  CB        13.1440   -3.9700  -19.7950 C.3   112  ASP112      0.1450
     49  CG        12.0210   -3.1840  -20.4770 C.2   112  ASP112      0.3671
     50  OD1       10.9590   -3.7910  -20.7650 O.co2 112  ASP112     -0.2456
     51  OD2       12.1970   -1.9640  -20.6940 O.co2 112  ASP112     -0.2456
     52  N         10.8450   -5.5380  -18.5320 N.am  113  ILE113     -0.1963
     53  CA        10.0230   -6.7570  -18.5560 C.3   113  ILE113      0.1727
     54  C          9.7570   -7.3270  -19.9790 C.2   113  ILE113      0.2616
     55  O          9.3470   -8.4790  -20.1080 O.2   113  ILE113     -0.2715
     56  CB         8.6820   -6.5960  -17.7600 C.3   113  ILE113      0.0290
     57  CG1        7.8130   -5.4700  -18.3150 C.3   113  ILE113      0.0022
     58  CG2        8.9630   -6.3700  -16.2560 C.3   113  ILE113      0.0023
     59  CD1        6.3380   -5.5870  -17.9290 C.3   113  ILE113      0.0001
     60  N         10.0270   -6.5310  -21.0170 N.am  114  ASN114     -0.1972
     61  CA         9.9190   -6.9290  -22.4200 C.3   114  ASN114      0.1688
     62  C         10.9920   -7.9410  -22.7880 C.2   114  ASN114      0.2292
     63  O         12.1830   -7.6350  -22.7580 O.2   114  ASN114     -0.2864
     64  CB        10.0560   -5.6840  -23.3080 C.3   114  ASN114      0.1181
     65  CG         9.9170   -5.9720  -24.8210 C.2   114  ASN114      0.2629
     66  OD1       10.1620   -7.0820  -25.3170 O.2   114  ASN114     -0.2716
     67  ND2        9.5440   -4.9330  -25.5600 N.am  114  ASN114     -0.0877
     68  N         13.8500   -7.0480  -25.2690 N.3   117  LYS117     -0.1245
     69  CA        14.8990   -6.1970  -24.7450 C.3   117  LYS117      0.1561
     70  C         15.7940   -6.8840  -23.7220 C.2   117  LYS117      0.2260
     71  O         17.0050   -6.6670  -23.7060 O.2   117  LYS117     -0.2867
     72  CB        14.2650   -4.9710  -24.1160 C.3   117  LYS117      0.0271
     73  CG        13.4560   -4.1560  -25.1360 C.3   117  LYS117      0.0035
     74  CD        12.7840   -2.9530  -24.5340 C.3   117  LYS117      0.0206
     75  CE        12.1150   -2.1280  -25.6260 C.3   117  LYS117      0.1093
     76  NZ        11.4300   -0.9650  -25.0250 N.3   117  LYS117     -0.1314
     77  N         13.7000   -7.5540  -14.7390 N.3   130  LEU130     -0.1245
     78  CA        13.3660   -6.9450  -13.4410 C.3   130  LEU130      0.1561
     79  C         13.3040   -7.9600  -12.2800 C.2   130  LEU130      0.2260
     80  O         13.5710   -7.5950  -11.1350 O.2   130  LEU130     -0.2867
     81  CB        12.0400   -6.1950  -13.5250 C.3   130  LEU130      0.0270
     82  CG        11.7470   -5.2290  -12.3610 C.3   130  LEU130      0.0019
     83  CD1       12.6590   -4.0370  -12.4530 C.3   130  LEU130      0.0001
     84  CD2       10.3010   -4.7940  -12.3790 C.3   130  LEU130      0.0001
     85  N         11.9510    5.1240  -15.6790 N.3   146  THR146     -0.1203
     86  CA        11.2990    5.5360  -16.9190 C.3   146  THR146      0.1994
     87  C         10.2920    4.4550  -17.3580 C.2   146  THR146      0.2618
     88  O         10.3060    3.9930  -18.4970 O.2   146  THR146     -0.2717
     89  CB        12.3170    5.8590  -18.0260 C.3   146  THR146      0.1784
     90  OG1       13.2150    4.7710  -18.1980 O.3   146  THR146     -0.2211
     91  CG2       13.1170    7.0750  -17.6770 C.3   146  THR146      0.0376
     92  N          9.4300    4.0650  -16.4210 N.am  147  VAL147     -0.1966
     93  CA         8.3930    3.0600  -16.6220 C.3   147  VAL147      0.1712
     94  C          7.0380    3.7860  -16.6190 C.2   147  VAL147      0.2458
     95  O          6.9580    4.9340  -16.2160 O.2   147  VAL147     -0.2730
     96  CB         8.4200    1.9830  -15.5010 C.3   147  VAL147      0.0289
     97  CG1        9.7550    1.1960  -15.5230 C.3   147  VAL147      0.0023
     98  CG2        8.1560    2.5800  -14.1220 C.3   147  VAL147      0.0023
     99  N          5.9680    3.1240  -17.0930 N.am  148  PRO148     -0.2727
    100  CA         4.6260    3.6570  -16.9020 C.3   148  PRO148      0.1402
    101  C          4.3260    3.9490  -15.4230 C.2   148  PRO148      0.2269
    102  O          4.8170    3.2360  -14.5460 O.2   148  PRO148     -0.2865
    103  CB         3.7250    2.5310  -17.4130 C.3   148  PRO148      0.0296
    104  CG         4.5480    1.7750  -18.3260 C.3   148  PRO148      0.0237
    105  CD         5.9450    1.8530  -17.8300 C.3   148  PRO148      0.0939
    106  N          3.3740    1.2230  -12.8410 N.3   151  ALA151     -0.1245
    107  CA         4.4190    0.2890  -12.3790 C.3   151  ALA151      0.1562
    108  C          5.4150    0.9220  -11.3940 C.2   151  ALA151      0.2260
    109  O          6.1710    0.2150  -10.7490 O.2   151  ALA151     -0.2867
    110  CB         5.2020   -0.2590  -13.5910 C.3   151  ALA151      0.0290
    111  N          8.0940   -0.9410   -7.9520 N.3   155  ILE155     -0.1245
    112  CA         9.5110   -0.9010   -8.2690 C.3   155  ILE155      0.1561
    113  C         10.2650   -0.0780   -7.2320 C.2   155  ILE155      0.2260
    114  O         11.3430   -0.4630   -6.7970 O.2   155  ILE155     -0.2867
    115  CB         9.7520   -0.3140   -9.6940 C.3   155  ILE155      0.0252
    116  CG1        9.2210   -1.2730  -10.7770 C.3   155  ILE155      0.0019
    117  CG2       11.2500   -0.0250   -9.9290 C.3   155  ILE155      0.0019
    118  CD1        9.3500   -0.7160  -12.1930 C.3   155  ILE155      0.0001
@<TRIPOS>BOND
     1    23    22    2
     2    22    24   am
     3    22    21    1
     4    21    18    1
     5    18    17    1
     6    18    19    1
     7    75    76    1
     8    75    74    1
     9    67    65   am
    10    66    65    2
    11    68    69    1
    12    20    19    2
    13    73    74    1
    14    73    72    1
    15    17    15   am
    16    19    25   am
    17    65    64    1
    18    69    72    1
    19    69    70    1
    20    15    16    2
    21    15    14    1
    22    25    26    1
    23    70    71    2
    24    14    13    1
    25    64    61    1
    26    26    27    1
    27    26    29    1
    28    62    63    2
    29    62    61    1
    30    61    60    1
    31    27    28    2
    32    29    30    1
    33    31    30    1
    34    60    54   am
    35    30    32    1
    36    50    49   ar
    37    51    49   ar
    38    49    48    1
    39    55    54    2
    40    54    53    1
    41    48    45    1
    42    12    11    2
    43    11    10    1
    44    53    52    1
    45    53    56    1
    46    52    46   am
    47    88    87    2
    48   104   105    1
    49   104   103    1
    50    57    59    1
    51    57    56    1
    52    45    46    1
    53    45    44    1
    54    10     9    1
    55    90    89    1
    56    46    47    2
    57    89    91    1
    58    89    86    1
    59   105    99    1
    60    56    58    1
    61    44    35   am
    62   103   100    1
    63    87    86    1
    64    87    92   am
    65    36    35    2
    66     9     3   am
    67    99   100    1
    68    99    94   am
    69    35    34    1
    70    86    85    1
    71   100   101    1
    72    93    94    1
    73    93    92    1
    74    93    96    1
    75    94    95    2
    76    33    34    1
    77    34    37    1
    78     3     4    2
    79     3     2    1
    80    97    96    1
    81    96    98    1
    82   101   102    2
    83     2     1    1
    84     2     5    1
    85    37    38    1
    86    77    78    1
    87    38    40   ar
    88    38    39   ar
    89     7     5    1
    90     5     6    1
    91    40    42   ar
    92   110   107    1
    93    81    78    1
    94    81    82    1
    95    39    41   ar
    96    78    79    1
    97   106   107    1
    98    42    43   ar
    99    41    43   ar
   100     6     8    1
   101    83    82    1
   102   107   108    1
   103    84    82    1
   104    79    80    2
   105   118   116    1
   106   108   109    2
   107   116   115    1
   108   117   115    1
   109   115   112    1
   110   112   111    1
   111   112   113    1
   112   113   114    2
