@<TRIPOS>MOLECULE
tmp/2vt4D04.pdb
 118 115 0 0 0
SMALL
GASTEIGER

@<TRIPOS>ATOM
      1  N         45.3460   20.5030  -24.0500 N.3   132  VAL132     -0.1245
      2  CA        44.0720   21.0790  -24.5140 C.3   132  VAL132      0.1561
      3  C         43.1690   20.0970  -25.2860 C.2   132  VAL132      0.2260
      4  O         42.0680   20.4650  -25.7250 O.2   132  VAL132     -0.2867
      5  CB        44.2840   22.3390  -25.4100 C.3   132  VAL132      0.0252
      6  CG1       45.3510   23.2250  -24.8460 C.3   132  VAL132      0.0019
      7  CG2       44.6150   21.9330  -26.8550 C.3   132  VAL132      0.0019
      8  N         40.6380   17.8600  -21.1600 N.3   136  PRO136     -0.2116
      9  CA        39.2010   18.1510  -21.0090 C.3   136  PRO136      0.1372
     10  C         38.3000   16.9380  -21.3350 C.2   136  PRO136      0.2244
     11  O         37.1800   16.8220  -20.8240 O.2   136  PRO136     -0.2868
     12  CB        38.9700   19.2790  -22.0090 C.3   136  PRO136      0.0268
     13  CG        40.3430   19.9110  -22.1800 C.3   136  PRO136      0.0207
     14  CD        41.2800   18.7510  -22.1410 C.3   136  PRO136      0.0892
     15  N         38.3480   14.7670  -18.1180 N.3   139  MET139     -0.1230
     16  CA        37.5490   15.3840  -17.0660 C.3   139  MET139      0.1702
     17  C         36.0990   15.6190  -17.4990 C.2   139  MET139      0.2592
     18  O         35.3330   16.2980  -16.8120 O.2   139  MET139     -0.2718
     19  CB        38.1880   16.6960  -16.6280 C.3   139  MET139      0.0401
     20  CG        39.5920   16.5310  -16.0450 C.3   139  MET139      0.0596
     21  SD        40.3980   18.1440  -15.8710 S.3   139  MET139     -0.1393
     22  CE        39.3230   18.8260  -14.6010 C.3   139  MET139      0.0692
     23  N         35.7350   15.0780  -18.6560 N.am  140  HIS140     -0.1962
     24  CA        34.3660   15.1690  -19.1520 C.3   140  HIS140      0.1787
     25  C         33.8430   16.5850  -19.3520 C.2   140  HIS140      0.2620
     26  O         32.6360   16.7970  -19.3500 O.2   140  HIS140     -0.2715
     27  CB        33.4240   14.4040  -18.2360 C.3   140  HIS140      0.0785
     28  CG        33.9020   13.0280  -17.8990 C.ar  140  HIS140      0.0821
     29  ND1       33.3930   11.9010  -18.4980 N.ar  140  HIS140     -0.2267
     30  CD2       34.8450   12.5970  -17.0270 C.ar  140  HIS140      0.1154
     31  CE1       34.0010   10.8320  -18.0140 C.ar  140  HIS140      0.1986
     32  NE2       34.8780   11.2250  -17.1100 N.ar  140  HIS140     -0.2212
     33  N         34.7390   17.5410  -19.5670 N.am  141  TRP141     -0.1974
     34  CA        34.3360   18.9290  -19.7580 C.3   141  TRP141      0.1640
     35  C         33.5160   19.1270  -21.0320 C.2   141  TRP141      0.2290
     36  O         32.8280   20.1330  -21.1860 O.2   141  TRP141     -0.2864
     37  CB        35.5610   19.8400  -19.7880 C.3   141  TRP141      0.0576
     38  CG        36.2190   20.0300  -18.4450 C.ar  141  TRP141      0.0006
     39  CD1       35.9740   19.3230  -17.2920 C.ar  141  TRP141      0.0946
     40  CD2       37.2480   20.9820  -18.1190 C.ar  141  TRP141      0.0152
     41  NE1       36.7770   19.7880  -16.2770 N.ar  141  TRP141     -0.2442
     42  CE2       37.5670   20.8020  -16.7560 C.ar  141  TRP141      0.0810
     43  CE3       37.9230   21.9730  -18.8440 C.ar  141  TRP141      0.0012
     44  CZ2       38.5400   21.5710  -16.1100 C.ar  141  TRP141      0.0191
     45  CZ3       38.8820   22.7370  -18.1950 C.ar  141  TRP141      0.0001
     46  CH2       39.1800   22.5310  -16.8470 C.ar  141  TRP141      0.0015
     47  N         31.0350   17.1840  -22.1570 N.3   143  ARG143     -0.1231
     48  CA        29.6850   16.6030  -22.1460 C.3   143  ARG143      0.1694
     49  C         28.5330   17.6080  -21.9960 C.2   143  ARG143      0.2592
     50  O         28.6560   18.6020  -21.2860 O.2   143  ARG143     -0.2718
     51  CB        29.5720   15.4960  -21.1010 C.3   143  ARG143      0.0321
     52  CG        30.2880   14.2440  -21.4940 C.3   143  ARG143      0.0489
     53  CD        30.0270   13.1720  -20.4800 C.3   143  ARG143      0.2205
     54  NE        31.1060   12.1970  -20.3870 N.pl3 143  ARG143     -0.0865
     55  CZ        31.2370   11.1360  -21.1820 C.cat 143  ARG143      0.5346
     56  NH1       30.3560   10.9120  -22.1410 N.pl3 143  ARG143      0.1354
     57  NH2       32.2500   10.2990  -21.0140 N.pl3 143  ARG143      0.1354
     58  N         27.4220   17.3280  -22.6830 N.am  144  ASP144     -0.1960
     59  CA        26.1970   18.1150  -22.5660 C.3   144  ASP144      0.1840
     60  C         25.1410   17.4790  -21.6390 C.2   144  ASP144      0.2621
     61  O         25.2680   16.3300  -21.2070 O.2   144  ASP144     -0.2715
     62  CB        25.5990   18.3850  -23.9510 C.3   144  ASP144      0.1450
     63  CG        24.7880   19.6960  -24.0100 C.2   144  ASP144      0.3671
     64  OD1       24.7880   20.4940  -23.0360 O.co2 144  ASP144     -0.2456
     65  OD2       24.1520   19.9300  -25.0600 O.co2 144  ASP144     -0.2456
     66  N         24.0990   18.2490  -21.3450 N.am  145  GLU145     -0.1977
     67  CA        23.0290   17.8050  -20.4570 C.3   145  GLU145      0.1602
     68  C         21.7960   17.2030  -21.1900 C.2   145  GLU145      0.2287
     69  O         21.1290   16.3220  -20.6450 O.2   145  GLU145     -0.2864
     70  CB        22.6200   18.9370  -19.5120 C.3   145  GLU145      0.0415
     71  CG        23.7890   19.6250  -18.7880 C.3   145  GLU145      0.1163
     72  CD        24.2730   18.8580  -17.5530 C.2   145  GLU145      0.3649
     73  OE1       23.7250   17.7620  -17.2810 O.co2 145  GLU145     -0.2457
     74  OE2       25.1970   19.3480  -16.8550 O.co2 145  GLU145     -0.2457
     75  N         28.7580   20.2630  -25.1850 N.3   164  ASN164     -0.1240
     76  CA        28.0830   21.4850  -24.7850 C.3   164  ASN164      0.1653
     77  C         28.6280   22.7090  -25.5670 C.2   164  ASN164      0.2266
     78  O         29.7420   22.6600  -26.1190 O.2   164  ASN164     -0.2867
     79  CB        28.1630   21.6490  -23.2680 C.3   164  ASN164      0.1155
     80  CG        29.5870   21.7920  -22.7600 C.2   164  ASN164      0.2627
     81  OD1       30.1890   22.8650  -22.8500 O.2   164  ASN164     -0.2716
     82  ND2       30.1180   20.7230  -22.1930 N.am  164  ASN164     -0.0877
     83  N         29.6520   25.7300  -24.5720 N.3   166  ALA166     -0.1231
     84  CA        30.8540   26.3010  -23.9560 C.3   166  ALA166      0.1694
     85  C         32.0910   25.6170  -24.5040 C.2   166  ALA166      0.2592
     86  O         32.9630   26.2670  -25.0600 O.2   166  ALA166     -0.2718
     87  CB        30.8170   26.1670  -22.4450 C.3   166  ALA166      0.0304
     88  N         32.1440   24.2960  -24.3460 N.am  167  TYR167     -0.1976
     89  CA        33.2590   23.5020  -24.8250 C.3   167  TYR167      0.1639
     90  C         33.4670   23.6560  -26.3260 C.2   167  TYR167      0.2290
     91  O         34.5780   23.9020  -26.7830 O.2   167  TYR167     -0.2864
     92  CB        33.0830   22.0220  -24.4740 C.3   167  TYR167      0.0560
     93  CG        34.1610   21.1700  -25.1100 C.ar  167  TYR167     -0.0198
     94  CD1       35.4060   20.9920  -24.4960 C.ar  167  TYR167     -0.0009
     95  CD2       33.9560   20.5910  -26.3470 C.ar  167  TYR167     -0.0009
     96  CE1       36.3830   20.2310  -25.0870 C.ar  167  TYR167      0.0417
     97  CE2       34.9250   19.8350  -26.9430 C.ar  167  TYR167      0.0417
     98  CZ        36.1370   19.6540  -26.3140 C.ar  167  TYR167      0.1957
     99  OH        37.0890   18.8870  -26.9450 O.3   167  TYR167     -0.2866
    100  N         35.0560   27.0610  -27.1260 N.3   170  ALA170     -0.1231
    101  CA        36.3730   27.2100  -26.5260 C.3   170  ALA170      0.1694
    102  C         37.4350   26.2690  -27.1240 C.2   170  ALA170      0.2592
    103  O         38.5400   26.6990  -27.4390 O.2   170  ALA170     -0.2718
    104  CB        36.2860   27.0550  -25.0010 C.3   170  ALA170      0.0304
    105  N         37.1040   24.9940  -27.2770 N.am  171  SER171     -0.1952
    106  CA        38.0760   24.0530  -27.8020 C.3   171  SER171      0.1924
    107  C         38.4470   24.4110  -29.2300 C.2   171  SER171      0.2314
    108  O         39.5660   24.1390  -29.6780 O.2   171  SER171     -0.2863
    109  CB        37.5790   22.6060  -27.7100 C.3   171  SER171      0.2116
    110  OG        36.6510   22.3080  -28.7230 O.3   171  SER171     -0.2180
    111  N         40.6970   27.5880  -29.2600 N.3   174  ILE174     -0.1245
    112  CA        41.9860   27.2030  -28.6880 C.3   174  ILE174      0.1561
    113  C         42.8030   26.1970  -29.5150 C.2   174  ILE174      0.2260
    114  O         44.0220   26.3000  -29.5590 O.2   174  ILE174     -0.2867
    115  CB        41.7950   26.7280  -27.2060 C.3   174  ILE174      0.0252
    116  CG1       41.8480   27.9490  -26.2770 C.3   174  ILE174      0.0019
    117  CG2       42.8150   25.6680  -26.7930 C.3   174  ILE174      0.0019
    118  CD1       40.9870   27.8290  -25.0360 C.3   174  ILE174      0.0001
@<TRIPOS>BOND
     1   108   107    2
     2   114   113    2
     3   113   112    1
     4   111   112    1
     5   107   106    1
     6   110   109    1
     7   112   115    1
     8   106   109    1
     9   106   105    1
    10   103   102    2
    11   105   102   am
    12   115   117    1
    13   115   116    1
    14   100   101    1
    15   102   101    1
    16    99    98    1
    17    97    95   ar
    18    97    98   ar
    19     7     5    1
    20    91    90    2
    21   101   104    1
    22    95    93   ar
    23    90    89    1
    24    98    96   ar
    25   116   118    1
    26    78    77    2
    27     4     3    2
    28    77    76    1
    29     5     6    1
    30     5     2    1
    31     3     2    1
    32    75    76    1
    33    93    94   ar
    34    93    92    1
    35    96    94   ar
    36    86    85    2
    37    65    63   ar
    38    89    92    1
    39    89    88    1
    40    76    79    1
    41    83    84    1
    42     2     1    1
    43    85    88   am
    44    85    84    1
    45    63    62    1
    46    63    64   ar
    47    84    87    1
    48    62    59    1
    49    79    80    1
    50    81    80    2
    51    80    82   am
    52    58    59    1
    53    58    49   am
    54    59    60    1
    55    13    14    1
    56    13    12    1
    57    47    48    1
    58    48    49    1
    59    48    51    1
    60    56    55    1
    61    14     8    1
    62    12     9    1
    63    49    50    2
    64    60    66   am
    65    60    61    2
    66    52    51    1
    67    52    53    1
    68    66    67    1
    69    10     9    1
    70    10    11    2
    71    68    69    2
    72    68    67    1
    73    36    35    2
    74    55    57    1
    75    55    54    2
    76     8     9    1
    77    35    34    1
    78    53    54    1
    79    67    70    1
    80    37    34    1
    81    37    38    1
    82    34    33    1
    83    33    25   am
    84    70    71    1
    85    25    26    2
    86    25    24    1
    87    24    23    1
    88    24    27    1
    89    43    45   ar
    90    43    40   ar
    91    71    72    1
    92    23    17   am
    93    29    31   ar
    94    29    28   ar
    95    38    40   ar
    96    38    39   ar
    97    27    28    1
    98    45    46   ar
    99    40    42   ar
   100    15    16    1
   101    31    32   ar
   102    28    30   ar
   103    72    73   ar
   104    72    74   ar
   105    17    16    1
   106    17    18    2
   107    39    41   ar
   108    32    30   ar
   109    16    19    1
   110    46    44   ar
   111    42    41   ar
   112    42    44   ar
   113    19    20    1
   114    20    21    1
   115    21    22    1
