@<TRIPOS>MOLECULE
tmp/2vt4D06.pdb
 117 109 0 0 0
SMALL
GASTEIGER

@<TRIPOS>ATOM
      1  N         56.5220   26.4450  -37.7250 N.3    95  ILE95      -0.1231
      2  CA        57.2120   26.4980  -39.0120 C.3    95  ILE95       0.1692
      3  C         57.2310   27.9290  -39.6180 C.2    95  ILE95       0.2591
      4  O         58.2500   28.3710  -40.1600 O.2    95  ILE95      -0.2718
      5  CB        56.6430   25.4700  -40.0060 C.3    95  ILE95       0.0266
      6  CG1       57.0340   24.0540  -39.6010 C.3    95  ILE95       0.0019
      7  CG2       57.1670   25.7360  -41.4000 C.3    95  ILE95       0.0020
      8  CD1       56.2470   23.0060  -40.3170 C.3    95  ILE95       0.0001
      9  N         56.1240   28.6550  -39.5060 N.am   96  ALA96      -0.1980
     10  CA        56.0790   30.0450  -39.9620 C.3    96  ALA96       0.1597
     11  C         57.0050   30.9620  -39.1530 C.2    96  ALA96       0.2287
     12  O         57.7680   31.7310  -39.7310 O.2    96  ALA96      -0.2864
     13  CB        54.6480   30.5880  -39.9270 C.3    96  ALA96       0.0319
     14  N         60.7530   30.2560  -39.9030 N.3    99  ARG99      -0.1245
     15  CA        61.1540   30.8530  -41.1880 C.3    99  ARG99       0.1563
     16  C         61.2540   32.3780  -41.1360 C.2    99  ARG99       0.2260
     17  O         62.2630   32.9510  -41.5060 O.2    99  ARG99      -0.2867
     18  CB        60.2160   30.4230  -42.3320 C.3    99  ARG99       0.0307
     19  CG        60.4040   28.9750  -42.8230 C.3    99  ARG99       0.0489
     20  CD        61.8350   28.6670  -43.2720 C.3    99  ARG99       0.2205
     21  NE        62.7370   28.4670  -42.1430 N.pl3  99  ARG99      -0.0865
     22  CZ        64.0660   28.4470  -42.2350 C.cat  99  ARG99       0.5346
     23  NH1       64.6640   28.6180  -43.4040 N.pl3  99  ARG99       0.1354
     24  NH2       64.8070   28.2600  -41.1550 N.pl3  99  ARG99       0.1354
     25  N         52.8150   34.1140  -41.7410 N.3   187  ALA187     -0.1245
     26  CA        53.1210   33.7250  -43.1150 C.3   187  ALA187      0.1562
     27  C         53.0020   34.8980  -44.0780 C.2   187  ALA187      0.2260
     28  O         53.7330   34.9650  -45.0580 O.2   187  ALA187     -0.2867
     29  CB        52.2200   32.5840  -43.5670 C.3   187  ALA187      0.0290
     30  N         56.1640   36.8630  -43.7490 N.3   190  VAL190     -0.1231
     31  CA        57.2440   36.1110  -44.3860 C.3   190  VAL190      0.1692
     32  C         57.2050   36.2760  -45.9030 C.2   190  VAL190      0.2592
     33  O         58.2440   36.3920  -46.5490 O.2   190  VAL190     -0.2718
     34  CB        57.1930   34.6150  -44.0070 C.3   190  VAL190      0.0266
     35  CG1       58.1610   33.7980  -44.8240 C.3   190  VAL190      0.0020
     36  CG2       57.4830   34.4450  -42.5420 C.3   190  VAL190      0.0020
     37  N         56.0000   36.2890  -46.4590 N.am  191  TYR191     -0.1976
     38  CA        55.7880   36.6030  -47.8680 C.3   191  TYR191      0.1639
     39  C         56.2690   38.0180  -48.2370 C.2   191  TYR191      0.2290
     40  O         56.9760   38.1920  -49.2170 O.2   191  TYR191     -0.2864
     41  CB        54.3060   36.4370  -48.2150 C.3   191  TYR191      0.0560
     42  CG        53.9500   36.7510  -49.6530 C.ar  191  TYR191     -0.0198
     43  CD1       53.9960   35.7600  -50.6270 C.ar  191  TYR191     -0.0009
     44  CD2       53.5490   38.0340  -50.0350 C.ar  191  TYR191     -0.0009
     45  CE1       53.6640   36.0330  -51.9470 C.ar  191  TYR191      0.0417
     46  CE2       53.2170   38.3210  -51.3560 C.ar  191  TYR191      0.0417
     47  CZ        53.2770   37.3130  -52.3080 C.ar  191  TYR191      0.1957
     48  OH        52.9500   37.5800  -53.6230 O.3   191  TYR191     -0.2866
     49  N         60.0910   37.8320  -48.1600 N.3   194  ALA194     -0.1231
     50  CA        60.6800   37.1150  -49.2860 C.3   194  ALA194      0.1694
     51  C         60.5090   37.9190  -50.5680 C.2   194  ALA194      0.2591
     52  O         61.3030   37.8000  -51.5000 O.2   194  ALA194     -0.2718
     53  CB        60.0520   35.7360  -49.4380 C.3   194  ALA194      0.0304
     54  N         59.4710   38.7500  -50.6030 N.am  195  LYS195     -0.1980
     55  CA        59.1860   39.5830  -51.7680 C.3   195  LYS195      0.1596
     56  C         60.1360   40.7780  -51.8650 C.2   195  LYS195      0.2287
     57  O         61.0070   40.8100  -52.7230 O.2   195  LYS195     -0.2864
     58  CB        57.7360   40.0670  -51.7220 C.3   195  LYS195      0.0298
     59  CG        57.3100   40.9140  -52.9010 C.3   195  LYS195      0.0038
     60  CD        56.0470   41.6920  -52.5700 C.3   195  LYS195      0.0206
     61  CE        55.6030   42.5290  -53.7550 C.3   195  LYS195      0.1093
     62  NZ        56.7450   43.2810  -54.3480 N.3   195  LYS195     -0.1314
     63  N         63.7920   39.5840  -52.7090 N.3   198  ILE198     -0.1245
     64  CA        64.3600   38.8590  -53.8470 C.3   198  ILE198      0.1561
     65  C         64.6540   39.7460  -55.0580 C.2   198  ILE198      0.2260
     66  O         65.4210   39.3650  -55.9470 O.2   198  ILE198     -0.2867
     67  CB        63.4350   37.7260  -54.2930 C.3   198  ILE198      0.0252
     68  CG1       64.1730   36.7740  -55.2370 C.3   198  ILE198      0.0019
     69  CG2       62.1880   38.2990  -54.9410 C.3   198  ILE198      0.0019
     70  CD1       63.2880   35.7010  -55.8310 C.3   198  ILE198      0.0001
     71  N         63.1060   30.5200  -52.4020 N.3   201  HIS201     -0.1241
     72  CA        61.7210   30.9320  -52.6000 C.3   201  HIS201      0.1621
     73  C         60.8410   29.7770  -53.0520 C.2   201  HIS201      0.2264
     74  O         59.6240   29.7960  -52.8620 O.2   201  HIS201     -0.2867
     75  CB        61.6370   32.1110  -53.5700 C.3   201  HIS201      0.0745
     76  CG        62.0800   33.4050  -52.9640 C.ar  201  HIS201      0.0817
     77  ND1       61.5130   34.6180  -53.2910 N.ar  201  HIS201     -0.2268
     78  CD2       63.0190   33.6690  -52.0220 C.ar  201  HIS201      0.1154
     79  CE1       62.0990   35.5760  -52.5920 C.ar  201  HIS201      0.1986
     80  NE2       63.0150   35.0280  -51.8140 N.ar  201  HIS201     -0.2212
     81  N         60.0720   28.0480  -49.8320 N.3   204  LEU204     -0.1231
     82  CA        59.0740   28.8630  -49.1480 C.3   204  LEU204      0.1693
     83  C         57.6930   28.7550  -49.7900 C.2   204  LEU204      0.2591
     84  O         56.6720   28.9140  -49.1180 O.2   204  LEU204     -0.2718
     85  CB        59.4970   30.3340  -49.1050 C.3   204  LEU204      0.0284
     86  CG        60.6080   30.6790  -48.1150 C.3   204  LEU204      0.0019
     87  CD1       60.6960   32.1810  -47.9390 C.3   204  LEU204      0.0001
     88  CD2       60.3500   29.9930  -46.7920 C.3   204  LEU204      0.0001
     89  N         57.6490   28.4940  -51.0900 N.am  205  LYS205     -0.1980
     90  CA        56.3640   28.4230  -51.7710 C.3   205  LYS205      0.1596
     91  C         55.6490   27.1230  -51.4300 C.2   205  LYS205      0.2287
     92  O         54.4220   27.0640  -51.4140 O.2   205  LYS205     -0.2864
     93  CB        56.5240   28.5680  -53.2820 C.3   205  LYS205      0.0298
     94  CG        55.3270   29.2700  -53.9170 C.3   205  LYS205      0.0038
     95  CD        54.8960   28.6230  -55.2330 C.3   205  LYS205      0.0206
     96  CE        53.9230   29.5250  -55.9880 C.3   205  LYS205      0.1093
     97  NZ        53.4710   28.9010  -57.2590 N.3   205  LYS205     -0.1314
     98  N         56.0610   25.5360  -48.4450 N.3   207  LEU207     -0.1231
     99  CA        55.5790   25.7650  -47.0920 C.3   207  LEU207      0.1693
    100  C         54.2640   26.5200  -47.1450 C.2   207  LEU207      0.2592
    101  O         53.3220   26.1720  -46.4240 O.2   207  LEU207     -0.2718
    102  CB        56.6130   26.5260  -46.2560 C.3   207  LEU207      0.0284
    103  CG        57.9050   25.7310  -46.0060 C.3   207  LEU207      0.0019
    104  CD1       58.9120   26.5120  -45.1550 C.3   207  LEU207      0.0001
    105  CD2       57.6080   24.3510  -45.3740 C.3   207  LEU207      0.0001
    106  N         54.2050   27.5370  -48.0090 N.am  208  GLY208     -0.1957
    107  CA        52.9800   28.2790  -48.2570 C.3   208  GLY208      0.1869
    108  C         51.8360   27.4010  -48.7510 C.2   208  GLY208      0.2309
    109  O         50.7090   27.5370  -48.2930 O.2   208  GLY208     -0.2863
    110  N         50.4240   25.2520  -45.9990 N.3   211  MET211     -0.1245
    111  CA        49.6160   26.0110  -45.0530 C.3   211  MET211      0.1570
    112  C         48.2840   26.4480  -45.6310 C.2   211  MET211      0.2261
    113  O         47.3190   26.6530  -44.8900 O.2   211  MET211     -0.2867
    114  CB        50.3710   27.2340  -44.5400 C.3   211  MET211      0.0387
    115  CG        51.6080   26.9180  -43.7220 C.3   211  MET211      0.0595
    116  SD        52.5140   28.4430  -43.3240 S.3   211  MET211     -0.1393
    117  CE        54.0250   27.7540  -42.6600 C.3   211  MET211      0.0692
@<TRIPOS>BOND
     1    97    96    1
     2    96    95    1
     3    66    65    2
     4    70    68    1
     5    68    67    1
     6    95    94    1
     7    65    64    1
     8    69    67    1
     9    62    61    1
    10    67    64    1
    11    94    93    1
    12    64    63    1
    13    61    60    1
    14    48    47    1
    15    75    76    1
    16    75    72    1
    17    77    76   ar
    18    77    79   ar
    19    93    90    1
    20    73    74    2
    21    73    72    1
    22    76    78   ar
    23    59    60    1
    24    59    58    1
    25    57    56    2
    26    72    71    1
    27    79    80   ar
    28    47    45   ar
    29    47    46   ar
    30    78    80   ar
    31    45    43   ar
    32    56    55    1
    33    90    91    1
    34    90    89    1
    35    55    58    1
    36    55    54    1
    37    52    51    2
    38    91    92    2
    39    46    44   ar
    40    89    83   am
    41    43    42   ar
    42    54    51   am
    43    51    50    1
    44    44    42   ar
    45    81    82    1
    46    83    82    1
    47    83    84    2
    48    42    41    1
    49    53    50    1
    50    50    49    1
    51    40    39    2
    52    82    85    1
    53    85    86    1
    54   108   109    2
    55   108   107    1
    56    98    99    1
    57   107   106    1
    58    39    38    1
    59    41    38    1
    60    86    87    1
    61    86    88    1
    62   106   100   am
    63    38    37    1
    64   100    99    1
    65   100   101    2
    66    99   102    1
    67    33    32    2
    68    37    32   am
    69   102   103    1
    70   103   105    1
    71   103   104    1
    72   110   111    1
    73    32    31    1
    74   112   111    1
    75   112   113    2
    76    28    27    2
    77   111   114    1
    78    35    34    1
    79   114   115    1
    80    31    34    1
    81    31    30    1
    82    27    26    1
    83    34    36    1
    84   115   116    1
    85    29    26    1
    86    23    22    1
    87   116   117    1
    88    20    19    1
    89    20    21    1
    90    26    25    1
    91    19    18    1
    92    18    15    1
    93    22    21    2
    94    22    24    1
    95    17    16    2
    96     7     5    1
    97    15    16    1
    98    15    14    1
    99     8     6    1
   100     4     3    2
   101     5     6    1
   102     5     2    1
   103    10    13    1
   104    10     9    1
   105    10    11    1
   106    12    11    2
   107     3     9   am
   108     3     2    1
   109     2     1    1
