@<TRIPOS>MOLECULE
tmp/2vt4D02.pdb
 91 83 0 0 0
SMALL
GASTEIGER

@<TRIPOS>ATOM
      1  N         49.4550   23.7970  -34.7790 N.3    90  GLU90      -0.1245
      2  CA        50.4860   24.3860  -33.9330 C.3    90  GLU90       0.1567
      3  C         51.8730   24.2610  -34.5830 C.2    90  GLU90       0.2260
      4  O         52.6150   25.2430  -34.6760 O.2    90  GLU90      -0.2867
      5  CB        50.4440   23.7930  -32.5050 C.3    90  GLU90       0.0388
      6  CG        49.3910   24.4860  -31.6050 C.3    90  GLU90       0.1160
      7  CD        49.2280   23.8640  -30.2120 C.2    90  GLU90       0.3649
      8  OE1       50.2290   23.3780  -29.6390 O.co2  90  GLU90      -0.2457
      9  OE2       48.0890   23.8840  -29.6810 O.co2  90  GLU90      -0.2457
     10  N         52.2730   26.7380  -37.2310 N.3    93  CYS93      -0.1221
     11  CA        52.6140   28.0110  -36.5950 C.3    93  CYS93       0.1808
     12  C         54.1010   28.1680  -36.3400 C.2    93  CYS93       0.2601
     13  O         54.6930   29.1990  -36.6540 O.2    93  CYS93      -0.2717
     14  CB        51.9090   28.1200  -35.2580 C.3    93  CYS93       0.0970
     15  SG        50.4600   29.0730  -35.3740 S.3    93  CYS93      -0.0800
     16  N         54.6820   27.1400  -35.7260 N.am   94  VAL94      -0.1979
     17  CA        56.1020   27.1130  -35.4180 C.3    94  VAL94       0.1595
     18  C         56.9140   27.2030  -36.7040 C.2    94  VAL94       0.2287
     19  O         57.8660   27.9590  -36.7720 O.2    94  VAL94      -0.2864
     20  CB        56.4930   25.8430  -34.6110 C.3    94  VAL94       0.0276
     21  CG1       57.9960   25.6210  -34.6210 C.3    94  VAL94       0.0022
     22  CG2       55.9600   25.9200  -33.1840 C.3    94  VAL94       0.0022
     23  N         56.9170   30.8900  -37.8260 N.3    97  ILE97      -0.1245
     24  CA        57.7250   31.7330  -36.9520 C.3    97  ILE97       0.1561
     25  C         59.2290   31.4680  -37.1400 C.2    97  ILE97       0.2260
     26  O         60.0380   32.4030  -37.1660 O.2    97  ILE97      -0.2867
     27  CB        57.2980   31.5580  -35.4650 C.3    97  ILE97       0.0252
     28  CG1       56.0010   32.3160  -35.1980 C.3    97  ILE97       0.0019
     29  CG2       58.3660   32.0450  -34.5070 C.3    97  ILE97       0.0019
     30  CD1       55.2620   31.7980  -34.0060 C.3    97  ILE97       0.0001
     31  N         55.2830   21.6080  -28.1330 N.3   125  VAL125     -0.1245
     32  CA        54.0730   21.6370  -28.9580 C.3   125  VAL125      0.1561
     33  C         53.1620   20.4270  -28.7560 C.2   125  VAL125      0.2260
     34  O         51.9610   20.5960  -28.6110 O.2   125  VAL125     -0.2867
     35  CB        54.3880   21.7720  -30.4430 C.3   125  VAL125      0.0252
     36  CG1       53.2220   21.2940  -31.2610 C.3   125  VAL125      0.0019
     37  CG2       54.7120   23.2090  -30.7910 C.3   125  VAL125      0.0019
     38  N         51.6130   20.7260  -25.1050 N.3   128  ILE128     -0.1245
     39  CA        50.5230   21.6940  -25.1110 C.3   128  ILE128      0.1561
     40  C         49.3040   21.1140  -25.8050 C.2   128  ILE128      0.2260
     41  O         48.1570   21.3490  -25.3940 O.2   128  ILE128     -0.2867
     42  CB        50.9280   23.0000  -25.7900 C.3   128  ILE128      0.0252
     43  CG1       52.0600   23.6540  -24.9810 C.3   128  ILE128      0.0019
     44  CG2       49.7290   23.9160  -25.9360 C.3   128  ILE128      0.0019
     45  CD1       52.6860   24.8870  -25.6200 C.3   128  ILE128      0.0001
     46  N         45.3460   20.5030  -24.0500 N.3   132  VAL132     -0.1245
     47  CA        44.0720   21.0790  -24.5140 C.3   132  VAL132      0.1561
     48  C         43.1690   20.0970  -25.2860 C.2   132  VAL132      0.2260
     49  O         42.0680   20.4650  -25.7250 O.2   132  VAL132     -0.2867
     50  CB        44.2840   22.3390  -25.4100 C.3   132  VAL132      0.0252
     51  CG1       45.3510   23.2250  -24.8460 C.3   132  VAL132      0.0019
     52  CG2       44.6150   21.9330  -26.8550 C.3   132  VAL132      0.0019
     53  N         38.3230   27.7240  -30.5460 N.3   173  ILE173     -0.1231
     54  CA        39.1210   28.9340  -30.4920 C.3   173  ILE173      0.1692
     55  C         40.5650   28.5530  -30.1580 C.2   173  ILE173      0.2591
     56  O         41.5250   29.0800  -30.7300 O.2   173  ILE173     -0.2718
     57  CB        38.5480   29.9150  -29.4320 C.3   173  ILE173      0.0266
     58  CG1       37.3240   30.6370  -29.9940 C.3   173  ILE173      0.0019
     59  CG2       39.5760   30.9420  -29.0020 C.3   173  ILE173      0.0020
     60  CD1       36.5460   31.4380  -28.9570 C.3   173  ILE173      0.0001
     61  N         40.6970   27.5880  -29.2600 N.am  174  ILE174     -0.1980
     62  CA        41.9860   27.2030  -28.6880 C.3   174  ILE174      0.1595
     63  C         42.8030   26.1970  -29.5150 C.2   174  ILE174      0.2287
     64  O         44.0220   26.3000  -29.5590 O.2   174  ILE174     -0.2864
     65  CB        41.7950   26.7280  -27.2060 C.3   174  ILE174      0.0276
     66  CG1       41.8480   27.9490  -26.2770 C.3   174  ILE174      0.0022
     67  CG2       42.8150   25.6680  -26.7930 C.3   174  ILE174      0.0022
     68  CD1       40.9870   27.8290  -25.0360 C.3   174  ILE174      0.0001
     69  N         42.8450   30.4120  -33.0990 N.3   178  ILE178     -0.1231
     70  CA        43.9800   31.2120  -32.6680 C.3   178  ILE178      0.1678
     71  C         45.2600   30.7850  -33.3790 C.2   178  ILE178      0.2434
     72  O         45.8970   31.6070  -34.0230 O.2   178  ILE178     -0.2733
     73  CB        44.1300   31.2580  -31.1290 C.3   178  ILE178      0.0265
     74  CG1       43.0730   32.1870  -30.5390 C.3   178  ILE178      0.0019
     75  CG2       45.5090   31.7430  -30.7200 C.3   178  ILE178      0.0020
     76  CD1       42.8350   31.9670  -29.0730 C.3   178  ILE178      0.0001
     77  N         45.6310   29.4990  -33.2910 N.am  179  PRO179     -0.2729
     78  CA        46.8380   29.0790  -34.0290 C.3   179  PRO179      0.1401
     79  C         46.7340   29.4400  -35.5060 C.2   179  PRO179      0.2269
     80  O         47.7310   29.8450  -36.0940 O.2   179  PRO179     -0.2865
     81  CB        46.8580   27.5550  -33.8710 C.3   179  PRO179      0.0296
     82  CG        46.0010   27.2720  -32.6850 C.3   179  PRO179      0.0237
     83  CD        45.0080   28.3980  -32.5360 C.3   179  PRO179      0.0939
     84  N         47.3730   33.2770  -36.1110 N.3   182  ILE182     -0.1245
     85  CA        48.8030   33.5530  -35.9630 C.3   182  ILE182      0.1561
     86  C         49.5680   33.1080  -37.1940 C.2   182  ILE182      0.2260
     87  O         50.3130   33.8820  -37.8060 O.2   182  ILE182     -0.2867
     88  CB        49.4000   32.8090  -34.7760 C.3   182  ILE182      0.0252
     89  CG1       48.9930   33.4920  -33.4760 C.3   182  ILE182      0.0019
     90  CG2       50.9280   32.7150  -34.9120 C.3   182  ILE182      0.0019
     91  CD1       49.1250   32.5940  -32.3070 C.3   182  ILE182      0.0001
@<TRIPOS>BOND
     1    23    24    1
     2    87    86    2
     3    10    11    1
     4    86    85    1
     5    26    25    2
     6    25    24    1
     7    24    27    1
     8    19    18    2
     9    18    17    1
    10    13    12    2
    11    11    12    1
    12    11    14    1
    13    12    16   am
    14    84    85    1
    15    80    79    2
    16    85    88    1
    17    16    17    1
    18    79    78    1
    19    27    28    1
    20    27    29    1
    21    17    20    1
    22    15    14    1
    23    28    30    1
    24    90    88    1
    25     1     2    1
    26    88    89    1
    27     4     3    2
    28    21    20    1
    29    20    22    1
    30     3     2    1
    31    78    81    1
    32    78    77    1
    33    72    71    2
    34     2     5    1
    35    81    82    1
    36    89    91    1
    37    71    77   am
    38    71    70    1
    39    77    83    1
    40    69    70    1
    41    82    83    1
    42    70    73    1
    43     5     6    1
    44     6     7    1
    45    36    35    1
    46    73    75    1
    47    73    74    1
    48    37    35    1
    49    56    55    2
    50    53    54    1
    51    74    76    1
    52    54    55    1
    53    54    57    1
    54    35    32    1
    55     7     9   ar
    56     7     8   ar
    57    55    61   am
    58    58    57    1
    59    58    60    1
    60    64    63    2
    61    63    62    1
    62    57    59    1
    63    61    62    1
    64    32    33    1
    65    32    31    1
    66    33    34    2
    67    62    65    1
    68    65    67    1
    69    65    66    1
    70    52    50    1
    71    66    68    1
    72    44    42    1
    73    40    41    2
    74    40    39    1
    75    42    39    1
    76    42    43    1
    77    49    48    2
    78    45    43    1
    79    50    51    1
    80    50    47    1
    81    48    47    1
    82    39    38    1
    83    47    46    1
