@<TRIPOS>MOLECULE
tmp/2vt5F00.pdb
 123 117 0 0 0
SMALL
GASTEIGER

@<TRIPOS>ATOM
      1  N         -7.5240   63.9240    6.7960 N.3     9  VAL9       -0.1231
      2  CA        -8.7330   64.4180    6.1550 C.3     9  VAL9        0.1692
      3  C         -8.3730   65.4040    5.0440 C.2     9  VAL9        0.2591
      4  O         -8.8800   65.3240    3.9310 O.2     9  VAL9       -0.2718
      5  CB        -9.7230   65.0450    7.2060 C.3     9  VAL9        0.0266
      6  CG1      -10.7510   65.9420    6.5510 C.3     9  VAL9        0.0020
      7  CG2      -10.4250   63.9380    7.9950 C.3     9  VAL9        0.0020
      8  N         -7.4760   66.3180    5.3700 N.am   10  MET10      -0.1979
      9  CA        -6.9990   67.3320    4.4610 C.3    10  MET10       0.1605
     10  C         -6.3150   66.7580    3.2220 C.2    10  MET10       0.2287
     11  O         -6.4990   67.2830    2.1350 O.2    10  MET10      -0.2864
     12  CB        -6.0200   68.2020    5.2070 C.3    10  MET10       0.0413
     13  CG        -6.3400   69.6350    5.1280 C.3    10  MET10       0.0598
     14  SD        -5.1260   70.4910    6.0980 S.3    10  MET10      -0.1393
     15  CE        -4.9090   71.8720    4.9880 C.3    10  MET10       0.0692
     16  N         -6.9800   63.8680    1.8740 N.3    12  GLU12      -0.1231
     17  CA        -8.0850   63.3380    1.0750 C.3    12  GLU12       0.1699
     18  C         -8.7940   64.4680    0.3460 C.2    12  GLU12       0.2593
     19  O         -9.2310   64.3030   -0.7870 O.2    12  GLU12      -0.2718
     20  CB        -9.0940   62.5690    1.9460 C.3    12  GLU12       0.0402
     21  CG        -8.6240   61.2120    2.4580 C.3    12  GLU12       0.1161
     22  CD        -8.2960   60.2310    1.3440 C.2    12  GLU12       0.3649
     23  OE1       -9.0780   60.1150    0.3720 O.co2  12  GLU12      -0.2457
     24  OE2       -7.2440   59.5690    1.4460 O.co2  12  GLU12      -0.2457
     25  N         -8.8950   65.6170    1.0020 N.am   13  GLY13      -0.1942
     26  CA        -9.5320   66.7820    0.4210 C.3    13  GLY13       0.2014
     27  C         -8.7170   67.4230   -0.6820 C.2    13  GLY13       0.2638
     28  O         -9.2800   67.9900   -1.6170 O.2    13  GLY13      -0.2714
     29  N         -7.3920   67.3400   -0.5520 N.am   14  ARG14      -0.1977
     30  CA        -6.4570   67.8900   -1.5300 C.3    14  ARG14       0.1597
     31  C         -6.4120   67.0150   -2.7730 C.2    14  ARG14       0.2287
     32  O         -6.2550   67.5190   -3.8870 O.2    14  ARG14      -0.2864
     33  CB        -5.0560   68.0760   -0.9260 C.3    14  ARG14       0.0334
     34  CG        -5.0010   69.1420    0.1900 C.3    14  ARG14       0.0492
     35  CD        -3.5880   69.6420    0.4760 C.3    14  ARG14       0.2205
     36  NE        -3.0610   70.4590   -0.6200 N.pl3  14  ARG14      -0.0865
     37  CZ        -1.7700   70.5650   -0.9250 C.cat  14  ARG14       0.5346
     38  NH1       -0.8590   69.8960   -0.2210 N.pl3  14  ARG14       0.1354
     39  NH2       -1.3910   71.3320   -1.9450 N.pl3  14  ARG14       0.1354
     40  N         -9.1810   65.1790   -3.7240 N.3    16  ALA16      -0.1245
     41  CA       -10.5080   65.4270   -4.3080 C.3    16  ALA16       0.1562
     42  C        -10.7150   66.8660   -4.7760 C.2    16  ALA16       0.2260
     43  O        -11.7780   67.2110   -5.2890 O.2    16  ALA16      -0.2867
     44  CB       -11.6060   65.0230   -3.3170 C.3    16  ALA16       0.0290
     45  N        -11.2700   69.4990   -3.0410 N.3    18  GLY18      -0.1210
     46  CA       -12.3440   70.1660   -2.3050 C.3    18  GLY18       0.1956
     47  C        -11.9680   71.5820   -1.9090 C.2    18  GLY18       0.2613
     48  O        -10.7970   71.9600   -1.9640 O.2    18  GLY18      -0.2717
     49  N        -12.9660   72.3640   -1.5100 N.am   19  THR19      -0.1938
     50  CA       -12.7660   73.7600   -1.0870 C.3    19  THR19       0.2028
     51  C        -12.1370   73.8860    0.3120 C.2    19  THR19       0.2643
     52  O        -11.6250   74.9460    0.6750 O.2    19  THR19      -0.2714
     53  CB       -14.1180   74.5380   -1.0720 C.3    19  THR19       0.1808
     54  OG1      -15.0800   73.8300   -0.2680 O.3    19  THR19      -0.2208
     55  CG2      -14.6730   74.7120   -2.4770 C.3    19  THR19       0.0379
     56  N        -12.2110   72.8070    1.0950 N.am   20  GLY20      -0.1939
     57  CA       -11.7540   72.7890    2.4840 C.3    20  GLY20       0.2014
     58  C        -12.8880   72.8200    3.4990 C.2    20  GLY20       0.2639
     59  O        -12.6480   72.8840    4.7030 O.2    20  GLY20      -0.2714
     60  N        -14.1260   72.7630    3.0130 N.am   21  GLU21      -0.1963
     61  CA       -15.2960   72.9410    3.8720 C.3    21  GLU21       0.1733
     62  C        -15.6100   71.7130    4.7350 C.2    21  GLU21       0.2616
     63  O        -16.0210   71.8560    5.8850 O.2    21  GLU21      -0.2715
     64  CB       -16.5120   73.3630    3.0400 C.3    21  GLU21       0.0429
     65  CG       -17.4100   74.3350    3.7460 C.3    21  GLU21       0.1163
     66  CD       -18.5020   74.8960    2.8540 C.2    21  GLU21       0.3649
     67  OE1      -18.1970   75.7770    2.0200 O.co2  21  GLU21      -0.2457
     68  OE2      -19.6710   74.4750    3.0010 O.co2  21  GLU21      -0.2457
     69  N        -15.4190   70.5210    4.1740 N.am   22  LEU22      -0.1963
     70  CA       -15.5880   69.2710    4.9120 C.3    22  LEU22       0.1728
     71  C        -14.5200   69.1280    5.9790 C.2    22  LEU22       0.2616
     72  O        -14.7910   68.6170    7.0680 O.2    22  LEU22      -0.2715
     73  CB       -15.5260   68.0660    3.9680 C.3    22  LEU22       0.0311
     74  CG       -15.6440   66.6640    4.5880 C.3    22  LEU22       0.0022
     75  CD1      -16.9670   66.4650    5.3250 C.3    22  LEU22       0.0001
     76  CD2      -15.4830   65.6160    3.5230 C.3    22  LEU22       0.0001
     77  N        -13.3030   69.5660    5.6420 N.am   23  THR23      -0.1951
     78  CA       -12.1810   69.5680    6.5550 C.3    23  THR23       0.1897
     79  C        -12.4740   70.4990    7.7360 C.2    23  THR23       0.2313
     80  O        -12.3490   70.0940    8.8860 O.2    23  THR23      -0.2863
     81  CB       -10.8820   69.9450    5.8230 C.3    23  THR23       0.1794
     82  OG1      -10.5570   68.8940    4.9210 O.3    23  THR23      -0.2208
     83  CG2       -9.7160   70.0900    6.7940 C.3    23  THR23       0.0378
     84  N        -22.3880   74.2920    3.1680 N.3    94  LYS94      -0.1231
     85  CA       -23.1740   73.3530    2.3550 C.3    94  LYS94       0.1693
     86  C        -23.5900   72.0530    3.0430 C.2    94  LYS94       0.2592
     87  O        -24.3650   71.2740    2.4860 O.2    94  LYS94      -0.2718
     88  CB       -22.5060   73.0740    0.9960 C.3    94  LYS94       0.0285
     89  CG       -21.1220   72.4160    1.0510 C.3    94  LYS94       0.0035
     90  CD       -20.6560   72.0350   -0.3620 C.3    94  LYS94       0.0206
     91  CE       -19.1390   71.8510   -0.4540 C.3    94  LYS94       0.1093
     92  NZ       -18.3820   73.1290   -0.1700 N.3    94  LYS94      -0.1314
     93  N        -23.1120   71.8170    4.2520 N.am   95  TYR95      -0.1976
     94  CA       -23.3400   70.5180    4.8560 C.3    95  TYR95       0.1639
     95  C        -24.4660   70.4260    5.8890 C.2    95  TYR95       0.2290
     96  O        -24.8180   71.3970    6.5460 O.2    95  TYR95      -0.2864
     97  CB       -22.0370   69.9390    5.4030 C.3    95  TYR95       0.0560
     98  CG       -21.0170   69.6110    4.3330 C.ar   95  TYR95      -0.0198
     99  CD1      -21.0900   68.4130    3.6010 C.ar   95  TYR95      -0.0009
    100  CD2      -19.9730   70.4970    4.0550 C.ar   95  TYR95      -0.0009
    101  CE1      -20.1350   68.1020    2.6340 C.ar   95  TYR95       0.0417
    102  CE2      -19.0120   70.2020    3.0810 C.ar   95  TYR95       0.0417
    103  CZ       -19.0960   69.0090    2.3800 C.ar   95  TYR95       0.1957
    104  OH       -18.1480   68.7480    1.4200 O.3    95  TYR95      -0.2866
    105  N        -24.4920   66.4990    2.1480 N.3   122  ARG122     -0.1245
    106  CA       -24.4010   67.7360    1.4090 C.3   122  ARG122      0.1563
    107  C        -25.8330   68.1640    1.1430 C.2   122  ARG122      0.2260
    108  O        -26.6940   67.3340    0.8820 O.2   122  ARG122     -0.2867
    109  CB       -23.6520   67.4890    0.0940 C.3   122  ARG122      0.0307
    110  CG       -22.9130   68.6950   -0.4790 C.3   122  ARG122      0.0489
    111  CD       -21.7670   68.2380   -1.3910 C.3   122  ARG122      0.2205
    112  NE       -20.5560   67.8490   -0.6590 N.pl3 122  ARG122     -0.0865
    113  CZ       -19.8110   66.7800   -0.9350 C.cat 122  ARG122      0.5346
    114  NH1      -20.1570   65.9560   -1.9170 N.pl3 122  ARG122      0.1354
    115  NH2      -18.7230   66.5210   -0.2170 N.pl3 122  ARG122      0.1354
    116  N        -15.4860   57.3480    5.3000 N.3   159  MET159     -0.1245
    117  CA       -15.7150   58.1440    4.1040 C.3   159  MET159      0.1570
    118  C        -15.6540   57.1960    2.9260 C.2   159  MET159      0.2261
    119  O        -15.6360   55.9800    3.1160 O.2   159  MET159     -0.2867
    120  CB       -14.6890   59.2740    3.9750 C.3   159  MET159      0.0387
    121  CG       -14.8040   60.3070    5.0970 C.3   159  MET159      0.0595
    122  SD       -13.7840   61.7740    4.9140 S.3   159  MET159     -0.1393
    123  CE       -12.1480   61.0600    5.1030 C.3   159  MET159      0.0692
@<TRIPOS>BOND
     1    43    42    2
     2    42    41    1
     3    41    40    1
     4    41    44    1
     5    32    31    2
     6    45    46    1
     7    31    30    1
     8    55    53    1
     9    46    47    1
    10    48    47    2
    11    39    37    1
    12   114   113    1
    13    47    49   am
    14    28    27    2
    15    30    33    1
    16    30    29    1
    17    49    50    1
    18   111   112    1
    19   111   110    1
    20    50    53    1
    21    50    51    1
    22    53    54    1
    23   113   112    2
    24   113   115    1
    25    33    34    1
    26    37    36    2
    27    37    38    1
    28    19    18    2
    29    27    29   am
    30    27    26    1
    31    36    35    1
    32   110   109    1
    33    91    90    1
    34    91    92    1
    35    90    89    1
    36   109   106    1
    37    34    35    1
    38    51    52    2
    39    51    56   am
    40    18    25   am
    41    18    17    1
    42    23    22   ar
    43    26    25    1
    44   108   107    2
    45    88    89    1
    46    88    85    1
    47    17    16    1
    48    17    20    1
    49    56    57    1
    50   107   106    1
    51    22    24   ar
    52    22    21    1
    53   106   105    1
    54   104   103    1
    55    20    21    1
    56    67    66   ar
    57    11    10    2
    58    85    86    1
    59    85    84    1
    60   103   101   ar
    61   103   102   ar
    62    57    58    1
    63    87    86    2
    64   101    99   ar
    65    66    68   ar
    66    66    65    1
    67   118   119    2
    68   118   117    1
    69    60    58   am
    70    60    61    1
    71    64    65    1
    72    64    61    1
    73    86    93   am
    74   102   100   ar
    75    10     9    1
    76    58    59    2
    77    76    74    1
    78    99    98   ar
    79    61    62    1
    80     4     3    2
    81    73    74    1
    82    73    70    1
    83   120   117    1
    84   120   121    1
    85   100    98   ar
    86   117   116    1
    87    69    62   am
    88    69    70    1
    89    93    94    1
    90    98    97    1
    91     9    12    1
    92     9     8    1
    93    74    75    1
    94    62    63    2
    95    94    97    1
    96    94    95    1
    97    70    71    1
    98   122   121    1
    99   122   123    1
   100    82    81    1
   101    15    14    1
   102     3     8   am
   103     3     2    1
   104    13    12    1
   105    13    14    1
   106    77    71   am
   107    77    78    1
   108    81    78    1
   109    81    83    1
   110    95    96    2
   111    71    72    2
   112     2     1    1
   113     2     5    1
   114     6     5    1
   115    78    79    1
   116     5     7    1
   117    79    80    2
