@<TRIPOS>MOLECULE
tmp/2vt7B01.pdb
 118 118 0 0 0
SMALL
GASTEIGER

@<TRIPOS>ATOM
      1  N         86.9190   44.7650   87.9580 N.3    81  TRP81      -0.1241
      2  CA        87.7140   45.9510   87.6540 C.3    81  TRP81       0.1605
      3  C         87.4060   47.1670   88.5450 C.2    81  TRP81       0.2264
      4  O         88.1700   48.1320   88.5490 O.2    81  TRP81      -0.2867
      5  CB        87.5410   46.3260   86.1810 C.3    81  TRP81       0.0550
      6  CG        87.8790   45.2060   85.2640 C.ar   81  TRP81       0.0003
      7  CD1       87.0070   44.4410   84.5400 C.ar   81  TRP81       0.0946
      8  CD2       89.1870   44.6860   84.9960 C.ar   81  TRP81       0.0152
      9  NE1       87.6920   43.4760   83.8350 N.ar   81  TRP81      -0.2442
     10  CE2       89.0340   43.6040   84.0970 C.ar   81  TRP81       0.0810
     11  CE3       90.4760   45.0290   85.4310 C.ar   81  TRP81       0.0012
     12  CZ2       90.1210   42.8610   83.6240 C.ar   81  TRP81       0.0191
     13  CZ3       91.5570   44.2910   84.9620 C.ar   81  TRP81       0.0001
     14  CH2       91.3720   43.2190   84.0670 C.ar   81  TRP81       0.0015
     15  N         96.0520   49.9180   84.7700 N.3   114  GLY114     -0.1210
     16  CA        95.4120   50.6550   83.7010 C.3   114  GLY114      0.1956
     17  C         94.0420   51.1100   84.1700 C.2   114  GLY114      0.2612
     18  O         93.7500   51.0910   85.3690 O.2   114  GLY114     -0.2717
     19  N         93.2060   51.5190   83.2220 N.am  115  GLY115     -0.1942
     20  CA        91.8720   51.9930   83.5480 C.3   115  GLY115      0.2014
     21  C         91.6230   53.3380   82.8820 C.2   115  GLY115      0.2639
     22  O         90.9020   54.1800   83.4100 O.2   115  GLY115     -0.2714
     23  N         92.2420   53.5310   81.7180 N.am  116  GLY116     -0.1954
     24  CA        92.0840   54.7550   80.9380 C.3   116  GLY116      0.1869
     25  C         92.4420   56.1040   81.5700 C.2   116  GLY116      0.2309
     26  O         92.0300   57.1560   81.0590 O.2   116  GLY116     -0.2863
     27  N         91.3460   57.1320   84.2440 N.3   118  TYR118     -0.1227
     28  CA        90.1800   57.6400   84.9550 C.3   118  TYR118      0.1736
     29  C         89.7440   56.6500   86.0440 C.2   118  TYR118      0.2596
     30  O         88.8570   56.9390   86.8450 O.2   118  TYR118     -0.2718
     31  CB        89.0340   57.9050   83.9700 C.3   118  TYR118      0.0548
     32  CG        88.3500   56.6520   83.4730 C.ar  118  TYR118     -0.0200
     33  CD1       87.3900   56.0030   84.2550 C.ar  118  TYR118     -0.0009
     34  CD2       88.6780   56.0990   82.2350 C.ar  118  TYR118     -0.0009
     35  CE1       86.7790   54.8410   83.8230 C.ar  118  TYR118      0.0417
     36  CE2       88.0700   54.9290   81.7870 C.ar  118  TYR118      0.0417
     37  CZ        87.1210   54.3080   82.5880 C.ar  118  TYR118      0.1957
     38  OH        86.5000   53.1600   82.1590 O.3   118  TYR118     -0.2866
     39  N         90.3810   55.4840   86.0730 N.am  119  SER119     -0.1952
     40  CA        90.0640   54.4610   87.0660 C.3   119  SER119      0.1924
     41  C         91.2440   53.5260   87.2750 C.2   119  SER119      0.2314
     42  O         92.3130   53.7020   86.6830 O.2   119  SER119     -0.2863
     43  CB        88.8610   53.6300   86.6220 C.3   119  SER119      0.2116
     44  OG        89.1130   53.0330   85.3650 O.3   119  SER119     -0.2180
     45  N         95.5510   41.5830   90.2250 N.3   127  TYR127     -0.1241
     46  CA        96.8750   42.1660   90.3850 C.3   127  TYR127      0.1605
     47  C         97.5670   41.5910   91.6200 C.2   127  TYR127      0.2264
     48  O         98.6470   42.0450   91.9830 O.2   127  TYR127     -0.2867
     49  CB        96.8030   43.6950   90.5110 C.3   127  TYR127      0.0534
     50  CG        96.0980   44.4050   89.3720 C.ar  127  TYR127     -0.0201
     51  CD1       96.1100   43.8870   88.0720 C.ar  127  TYR127     -0.0009
     52  CD2       95.4350   45.6130   89.5920 C.ar  127  TYR127     -0.0009
     53  CE1       95.4700   44.5600   87.0230 C.ar  127  TYR127      0.0417
     54  CE2       94.8010   46.2900   88.5560 C.ar  127  TYR127      0.0417
     55  CZ        94.8210   45.7610   87.2780 C.ar  127  TYR127      0.1957
     56  OH        94.1810   46.4320   86.2670 O.3   127  TYR127     -0.2866
     57  N         99.3940   47.6330   81.9530 N.3   196  GLU196     -0.1231
     58  CA        98.4960   47.3130   80.8480 C.3   196  GLU196      0.1699
     59  C         97.6000   48.5070   80.5300 C.2   196  GLU196      0.2592
     60  O         97.1840   49.2290   81.4350 O.2   196  GLU196     -0.2718
     61  CB        97.6680   46.0830   81.2300 C.3   196  GLU196      0.0402
     62  CG        96.6800   45.5990   80.1940 C.3   196  GLU196      0.1161
     63  CD        95.3400   46.3050   80.2810 C.2   196  GLU196      0.3649
     64  OE1       95.1120   47.0350   81.2680 O.co2 196  GLU196     -0.2457
     65  OE2       94.5120   46.1180   79.3630 O.co2 196  GLU196     -0.2457
     66  N         97.3410   48.7190   79.2410 N.am  197  SER197     -0.1952
     67  CA        96.5090   49.8170   78.7450 C.3   197  SER197      0.1924
     68  C         97.0340   51.1740   79.2150 C.2   197  SER197      0.2314
     69  O         98.1290   51.5770   78.8250 O.2   197  SER197     -0.2863
     70  CB        95.0520   49.6200   79.1830 C.3   197  SER197      0.2116
     71  OG        94.1810   50.3760   78.3600 O.3   197  SER197     -0.2180
     72  N         88.7100   59.3190   77.1060 N.3   287  PHE287     -0.1241
     73  CA        88.5870   59.6450   78.5100 C.3   287  PHE287      0.1605
     74  C         88.8930   61.1230   78.7230 C.2   287  PHE287      0.2264
     75  O         89.7070   61.7160   78.0170 O.2   287  PHE287     -0.2867
     76  CB        89.5290   58.7380   79.2700 C.3   287  PHE287      0.0534
     77  CG        89.5620   57.3390   78.7130 C.ar  287  PHE287     -0.0203
     78  CD1       88.4540   56.4980   78.8260 C.ar  287  PHE287     -0.0042
     79  CD2       90.6800   56.8810   78.0240 C.ar  287  PHE287     -0.0042
     80  CE1       88.4590   55.2210   78.2530 C.ar  287  PHE287     -0.0003
     81  CE2       90.6980   55.6140   77.4500 C.ar  287  PHE287     -0.0003
     82  CZ        89.5860   54.7790   77.5630 C.ar  287  PHE287     -0.0000
     83  N         85.3080   45.4050   74.4550 N.3   327  PHE327     -0.1227
     84  CA        84.8030   45.9710   75.6940 C.3   327  PHE327      0.1736
     85  C         84.1190   47.3120   75.4590 C.2   327  PHE327      0.2595
     86  O         83.0240   47.5730   75.9670 O.2   327  PHE327     -0.2718
     87  CB        85.9590   46.1980   76.6510 C.3   327  PHE327      0.0547
     88  CG        85.7130   45.6810   78.0210 C.ar  327  PHE327     -0.0202
     89  CD1       84.5140   45.9430   78.6750 C.ar  327  PHE327     -0.0042
     90  CD2       86.6900   44.9320   78.6720 C.ar  327  PHE327     -0.0042
     91  CE1       84.2890   45.4650   79.9610 C.ar  327  PHE327     -0.0003
     92  CE2       86.4780   44.4470   79.9590 C.ar  327  PHE327     -0.0003
     93  CZ        85.2720   44.7160   80.6060 C.ar  327  PHE327     -0.0000
     94  N         84.7890   48.1630   74.6930 N.am  328  PHE328     -0.1976
     95  CA        84.2970   49.5140   74.4250 C.3   328  PHE328      0.1639
     96  C         83.0710   49.6210   73.5230 C.2   328  PHE328      0.2290
     97  O         82.2750   50.5490   73.6580 O.2   328  PHE328     -0.2864
     98  CB        85.4580   50.3520   73.8960 C.3   328  PHE328      0.0560
     99  CG        86.6810   50.2840   74.7760 C.ar  328  PHE328     -0.0200
    100  CD1       87.5660   49.2060   74.6860 C.ar  328  PHE328     -0.0042
    101  CD2       86.9070   51.2570   75.7490 C.ar  328  PHE328     -0.0042
    102  CE1       88.6530   49.0960   75.5560 C.ar  328  PHE328     -0.0003
    103  CE2       87.9870   51.1590   76.6230 C.ar  328  PHE328     -0.0003
    104  CZ        88.8620   50.0750   76.5260 C.ar  328  PHE328     -0.0000
    105  N         90.2440   42.9800   76.1010 N.3   437  HIS437     -0.1226
    106  CA        91.1750   43.9550   76.6280 C.3   437  HIS437      0.1752
    107  C         91.2960   43.6420   78.1190 C.2   437  HIS437      0.2596
    108  O         90.2860   43.5200   78.8100 O.2   437  HIS437     -0.2718
    109  CB        90.5770   45.3450   76.3950 C.3   437  HIS437      0.0759
    110  CG        91.3950   46.4740   76.9350 C.ar  437  HIS437      0.0818
    111  ND1       92.4200   47.0610   76.2230 N.ar  437  HIS437     -0.2268
    112  CD2       91.3010   47.1620   78.0970 C.ar  437  HIS437      0.1154
    113  CE1       92.9160   48.0680   76.9210 C.ar  437  HIS437      0.1986
    114  NE2       92.2540   48.1500   78.0620 N.ar  437  HIS437     -0.2212
    115  N         92.5290   43.4760   78.5930 N.am  438  GLY438     -0.1957
    116  CA        92.7720   43.1810   79.9980 C.3   438  GLY438      0.1869
    117  C         92.8230   41.7140   80.4120 C.2   438  GLY438      0.2309
    118  O         93.2920   41.3800   81.5070 O.2   438  GLY438     -0.2863
@<TRIPOS>BOND
     1    96    97    2
     2    96    95    1
     3    98    95    1
     4    98    99    1
     5    95    94    1
     6    83    84    1
     7   100    99   ar
     8   100   102   ar
     9    94    85   am
    10    99   101   ar
    11    85    84    1
    12    85    86    2
    13   102   104   ar
    14    84    87    1
    15   101   103   ar
    16   105   106    1
    17   111   113   ar
    18   111   110   ar
    19   109   106    1
    20   109   110    1
    21   104   103   ar
    22   106   107    1
    23    87    88    1
    24   113   114   ar
    25   110   112   ar
    26    72    73    1
    27    81    82   ar
    28    81    79   ar
    29    82    80   ar
    30    75    74    2
    31    88    90   ar
    32    88    89   ar
    33    79    77   ar
    34   114   112   ar
    35   107   115   am
    36   107   108    2
    37    80    78   ar
    38    71    70    1
    39    73    74    1
    40    73    76    1
    41   115   116    1
    42    90    92   ar
    43    89    91   ar
    44    77    78   ar
    45    77    76    1
    46    67    70    1
    47    67    68    1
    48    67    66    1
    49    69    68    2
    50    66    59   am
    51    65    63   ar
    52    92    93   ar
    53    91    93   ar
    54   116   117    1
    55    62    63    1
    56    62    61    1
    57    63    64   ar
    58   117   118    2
    59    59    58    1
    60    59    60    2
    61    58    61    1
    62    58    57    1
    63    24    25    1
    64    24    23    1
    65    26    25    2
    66    23    21   am
    67    36    34   ar
    68    36    37   ar
    69    38    37    1
    70    34    32   ar
    71    37    35   ar
    72    21    22    2
    73    21    20    1
    74    19    20    1
    75    19    17   am
    76    32    31    1
    77    32    33   ar
    78    12    14   ar
    79    12    10   ar
    80    16    17    1
    81    16    15    1
    82    35    33   ar
    83     9    10   ar
    84     9     7   ar
    85    31    28    1
    86    14    13   ar
    87    10     8   ar
    88    17    18    2
    89    27    28    1
    90     7     6   ar
    91    28    29    1
    92    13    11   ar
    93     8     6   ar
    94     8    11   ar
    95     6     5    1
    96    44    43    1
    97    29    39   am
    98    29    30    2
    99    39    40    1
   100     5     2    1
   101    56    55    1
   102    43    40    1
   103    42    41    2
   104    53    55   ar
   105    53    51   ar
   106    40    41    1
   107    55    54   ar
   108     2     1    1
   109     2     3    1
   110    51    50   ar
   111     3     4    2
   112    54    52   ar
   113    50    52   ar
   114    50    49    1
   115    45    46    1
   116    46    49    1
   117    46    47    1
   118    47    48    2
