@<TRIPOS>MOLECULE
tmp/2vtaA00.pdb
 113 106 0 0 0
SMALL
GASTEIGER

@<TRIPOS>ATOM
      1  N         26.3410   11.9030   68.4370 N.3    10  ILE10      -0.1245
      2  CA        27.3320   11.4870   67.4400 C.3    10  ILE10       0.1561
      3  C         27.0590   12.0600   66.0590 C.2    10  ILE10       0.2260
      4  O         27.8210   11.8120   65.1150 O.2    10  ILE10      -0.2867
      5  CB        27.5270    9.9580   67.3170 C.3    10  ILE10       0.0252
      6  CG1       26.7040    9.1510   68.3070 C.3    10  ILE10       0.0019
      7  CG2       28.9880    9.6080   67.4700 C.3    10  ILE10       0.0019
      8  CD1       26.8860    7.6360   68.1210 C.3    10  ILE10       0.0001
      9  N         21.6530   11.1750   65.7780 N.3    18  VAL18      -0.1245
     10  CA        22.2720    9.9860   66.3560 C.3    18  VAL18       0.1561
     11  C         22.9070   10.2860   67.7010 C.2    18  VAL18       0.2260
     12  O         23.5990   11.2940   67.8720 O.2    18  VAL18      -0.2867
     13  CB        23.2690    9.3080   65.4150 C.3    18  VAL18       0.0252
     14  CG1       23.6260    7.9110   65.9640 C.3    18  VAL18       0.0019
     15  CG2       22.6980    9.2030   64.0150 C.3    18  VAL18       0.0019
     16  N         24.6510    3.1190   69.3000 N.3    31  ALA31      -0.1245
     17  CA        24.3220    4.3840   68.7050 C.3    31  ALA31       0.1562
     18  C         22.8310    4.3280   68.5410 C.2    31  ALA31       0.2260
     19  O         22.2940    3.3770   68.0160 O.2    31  ALA31      -0.2867
     20  CB        25.0210    4.5510   67.3590 C.3    31  ALA31       0.0290
     21  N         19.5930    6.0560   66.9390 N.3    33  LYS33      -0.1245
     22  CA        19.1060    7.0120   65.9440 C.3    33  LYS33       0.1561
     23  C         17.6100    7.3370   66.0660 C.2    33  LYS33       0.2260
     24  O         16.7640    6.4880   65.8330 O.2    33  LYS33      -0.2867
     25  CB        19.4360    6.5360   64.5360 C.3    33  LYS33       0.0271
     26  CG        19.0000    7.4960   63.4720 C.3    33  LYS33       0.0035
     27  CD        19.4260    7.0650   62.1030 C.3    33  LYS33       0.0206
     28  CE        18.9210    8.0730   61.0810 C.3    33  LYS33       0.1093
     29  NZ        19.2640    7.7190   59.6740 N.3    33  LYS33      -0.1314
     30  N         27.3890   -2.2160   59.6850 N.3    55  VAL55      -0.1245
     31  CA        27.0150   -1.8060   61.0550 C.3    55  VAL55       0.1561
     32  C         25.7150   -2.5150   61.4930 C.2    55  VAL55       0.2260
     33  O         24.6170   -2.2710   60.9290 O.2    55  VAL55      -0.2867
     34  CB        26.8410   -0.2360   61.1900 C.3    55  VAL55       0.0252
     35  CG1       26.4270    0.1590   62.6140 C.3    55  VAL55       0.0019
     36  CG2       28.0930    0.5120   60.7670 C.3    55  VAL55       0.0019
     37  N         21.8630    0.7750   66.8610 N.3    71  PHE71      -0.1227
     38  CA        22.9630    0.2140   66.0750 C.3    71  PHE71       0.1736
     39  C         24.1230   -0.1240   66.9730 C.2    71  PHE71       0.2595
     40  O         24.3430    0.5000   68.0110 O.2    71  PHE71      -0.2718
     41  CB        23.4770    1.1970   65.0010 C.3    71  PHE71       0.0547
     42  CG        22.5170    1.4260   63.8750 C.ar   71  PHE71      -0.0202
     43  CD1       22.3000    0.4430   62.9250 C.ar   71  PHE71      -0.0042
     44  CD2       21.8380    2.6320   63.7610 C.ar   71  PHE71      -0.0042
     45  CE1       21.3610    0.6130   61.9250 C.ar   71  PHE71      -0.0003
     46  CE2       20.9050    2.8290   62.7580 C.ar   71  PHE71      -0.0003
     47  CZ        20.6770    1.8160   61.8270 C.ar   71  PHE71      -0.0000
     48  N         24.8740   -1.1120   66.5160 N.am   72  GLU72      -0.1965
     49  CA        26.2540   -1.3260   66.9130 C.3    72  GLU72       0.1733
     50  C         27.0100    0.0180   66.9050 C.2    72  GLU72       0.2616
     51  O         26.8770    0.8210   65.9900 O.2    72  GLU72      -0.2715
     52  CB        26.8850   -2.3380   65.9410 C.3    72  GLU72       0.0429
     53  CG        28.3720   -2.2900   65.8700 C.3    72  GLU72       0.1163
     54  CD        28.9810   -3.2500   64.8490 C.2    72  GLU72       0.3649
     55  OE1       28.3280   -3.6990   63.8970 O.co2  72  GLU72      -0.2457
     56  OE2       30.1420   -3.5760   65.0310 O.co2  72  GLU72      -0.2457
     57  N         27.7890    0.2770   67.9460 N.am   73  PHE73      -0.1960
     58  CA        28.5300    1.5310   68.0250 C.3    73  PHE73       0.1771
     59  C         30.0150    1.4000   67.6360 C.2    73  PHE73       0.2619
     60  O         30.6930    0.4990   68.0820 O.2    73  PHE73      -0.2715
     61  CB        28.4040    2.1030   69.4200 C.3    73  PHE73       0.0574
     62  CG        29.2230    3.3320   69.6430 C.ar   73  PHE73      -0.0200
     63  CD1       28.6990    4.5750   69.3200 C.ar   73  PHE73      -0.0042
     64  CD2       30.5200    3.2450   70.1260 C.ar   73  PHE73      -0.0042
     65  CE1       29.4230    5.7400   69.5240 C.ar   73  PHE73      -0.0003
     66  CE2       31.2790    4.3950   70.2980 C.ar   73  PHE73      -0.0003
     67  CZ        30.7230    5.6610   69.9970 C.ar   73  PHE73      -0.0000
     68  N         30.4810    2.3010   66.7660 N.am   74  LEU74      -0.1977
     69  CA        31.8950    2.4410   66.4430 C.3    74  LEU74       0.1596
     70  C         32.3280    3.8820   66.7370 C.2    74  LEU74       0.2287
     71  O         31.5360    4.8280   66.5990 O.2    74  LEU74      -0.2864
     72  CB        32.2070    2.0500   64.9910 C.3    74  LEU74       0.0297
     73  CG        31.9980    0.5630   64.6780 C.3    74  LEU74       0.0022
     74  CD1       30.5350    0.2700   64.3050 C.3    74  LEU74       0.0001
     75  CD2       32.9410    0.0260   63.5940 C.3    74  LEU74       0.0001
     76  N         31.1060    9.9870   55.8210 N.3   122  GLN122     -0.1231
     77  CA        30.4710   10.0620   57.1540 C.3   122  GLN122      0.1698
     78  C         29.7280    8.8210   57.6010 C.2   122  GLN122      0.2592
     79  O         29.4700    8.6580   58.7830 O.2   122  GLN122     -0.2718
     80  CB        29.4830   11.2250   57.2460 C.3   122  GLN122      0.0381
     81  CG        30.0620   12.5820   56.8360 C.3   122  GLN122      0.0905
     82  CD        29.7740   12.8940   55.3720 C.2   122  GLN122      0.2608
     83  OE1       28.6420   13.2300   55.0190 O.2   122  GLN122     -0.2717
     84  NE2       30.7650   12.7010   54.5050 N.am  122  GLN122     -0.0878
     85  N         29.2130    8.0380   56.6630 N.am  123  ASN123     -0.1974
     86  CA        28.5840    6.7920   57.0690 C.3   123  ASN123      0.1688
     87  C         29.4300    5.5240   56.8690 C.2   123  ASN123      0.2292
     88  O         28.9160    4.4270   56.6910 O.2   123  ASN123     -0.2864
     89  CB        27.1000    6.7030   56.6400 C.3   123  ASN123      0.1181
     90  CG        26.9030    6.8440   55.1550 C.2   123  ASN123      0.2629
     91  OD1       27.6080    6.2140   54.3770 O.2   123  ASN123     -0.2716
     92  ND2       25.8380    7.5440   54.7570 N.am  123  ASN123     -0.0877
     93  N         32.2090    3.5910   58.9720 N.3   125  LEU125     -0.1245
     94  CA        32.6960    3.5960   60.3470 C.3   125  LEU125      0.1561
     95  C         33.8160    2.5940   60.5340 C.2   125  LEU125      0.2260
     96  O         33.7320    1.4590   60.0610 O.2   125  LEU125     -0.2867
     97  CB        31.5570    3.3100   61.3640 C.3   125  LEU125      0.0270
     98  CG        30.2100    4.0680   61.2620 C.3   125  LEU125      0.0019
     99  CD1       29.2120    3.5880   62.3560 C.3   125  LEU125      0.0001
    100  CD2       30.3730    5.5730   61.2910 C.3   125  LEU125      0.0001
    101  N         27.3230    2.0940   57.3270 N.3   135  ALA135     -0.1231
    102  CA        26.2270    2.5220   58.2160 C.3   135  ALA135      0.1694
    103  C         25.0490    3.1080   57.4070 C.2   135  ALA135      0.2592
    104  O         25.2530    3.7020   56.3460 O.2   135  ALA135     -0.2718
    105  CB        26.6980    3.5310   59.2170 C.3   135  ALA135      0.0304
    106  N         23.8440    3.0150   57.9590 N.am  136  ASP136     -0.1974
    107  CA        22.6290    3.5220   57.2960 C.3   136  ASP136      0.1709
    108  C         22.1920    2.8240   56.0190 C.2   136  ASP136      0.2293
    109  O         21.4700    3.3910   55.1980 O.2   136  ASP136     -0.2864
    110  CB        22.6730    5.0350   57.1290 C.3   136  ASP136      0.1436
    111  CG        22.5940    5.7430   58.4600 C.2   136  ASP136      0.3671
    112  OD1       22.1760    5.0740   59.4230 O.co2 136  ASP136     -0.2456
    113  OD2       23.0000    6.9190   58.5730 O.co2 136  ASP136     -0.2456
@<TRIPOS>BOND
     1    91    90    2
     2    84    82   am
     3    92    90   am
     4    83    82    2
     5    90    89    1
     6   109   108    2
     7    82    81    1
     8    76    77    1
     9   108   107    1
    10   104   103    2
    11    89    86    1
    12    85    86    1
    13    85    78   am
    14    88    87    2
    15    81    80    1
    16    87    86    1
    17   110   107    1
    18   110   111    1
    19    77    80    1
    20    77    78    1
    21   107   106    1
    22   101   102    1
    23   103   106   am
    24   103   102    1
    25    78    79    2
    26   102   105    1
    27   111   113   ar
    28   111   112   ar
    29    93    94    1
    30    29    28    1
    31    30    31    1
    32    96    95    2
    33    94    95    1
    34    94    97    1
    35    36    34    1
    36    33    32    2
    37    31    34    1
    38    31    32    1
    39    28    27    1
    40    34    35    1
    41    98   100    1
    42    98    97    1
    43    98    99    1
    44    47    45   ar
    45    47    46   ar
    46    45    43   ar
    47    27    26    1
    48    46    44   ar
    49    43    42   ar
    50    26    25    1
    51    75    73    1
    52    44    42   ar
    53    42    41    1
    54    55    54   ar
    55    15    13    1
    56    74    73    1
    57    25    22    1
    58    73    72    1
    59    54    56   ar
    60    54    53    1
    61    72    69    1
    62    41    38    1
    63     4     3    2
    64    13    14    1
    65    13    10    1
    66     9    10    1
    67    24    23    2
    68    53    52    1
    69    52    49    1
    70    22    23    1
    71    22    21    1
    72    51    50    2
    73     3     2    1
    74    38    37    1
    75    38    39    1
    76    10    11    1
    77    69    70    1
    78    69    68    1
    79    48    49    1
    80    48    39   am
    81    71    70    2
    82    68    59   am
    83    50    49    1
    84    50    57   am
    85    39    40    2
    86     5     2    1
    87     5     7    1
    88     5     6    1
    89    20    17    1
    90     2     1    1
    91    59    58    1
    92    59    60    2
    93    11    12    2
    94    57    58    1
    95    19    18    2
    96    58    61    1
    97     8     6    1
    98    18    17    1
    99    17    16    1
   100    63    65   ar
   101    63    62   ar
   102    61    62    1
   103    65    67   ar
   104    62    64   ar
   105    67    66   ar
   106    64    66   ar
