@<TRIPOS>MOLECULE
tmp/2vtbE00.pdb
 267 263 0 0 0
SMALL
GASTEIGER

@<TRIPOS>ATOM
      1  N        -39.0170  -30.2120  -77.2010 N.3   192  VAL192     -0.1231
      2  CA       -40.0930  -29.2320  -77.0700 C.3   192  VAL192      0.1692
      3  C        -39.4950  -27.8260  -76.9780 C.2   192  VAL192      0.2592
      4  O        -38.6680  -27.5460  -76.1020 O.2   192  VAL192     -0.2718
      5  CB       -40.9470  -29.5140  -75.8210 C.3   192  VAL192      0.0266
      6  CG1      -42.0910  -28.4910  -75.7020 C.3   192  VAL192      0.0020
      7  CG2      -41.4820  -30.9700  -75.8430 C.3   192  VAL192      0.0020
      8  N        -39.9120  -26.9520  -77.8920 N.am  193  TYR193     -0.1962
      9  CA       -39.3900  -25.5880  -77.9780 C.3   193  TYR193      0.1771
     10  C        -39.5080  -24.8400  -76.6530 C.2   193  TYR193      0.2620
     11  O        -38.5460  -24.2130  -76.2050 O.2   193  TYR193     -0.2715
     12  CB       -40.1050  -24.7920  -79.0840 C.3   193  TYR193      0.0574
     13  CG       -39.8620  -23.2990  -78.9920 C.ar  193  TYR193     -0.0198
     14  CD1      -38.7460  -22.7090  -79.5960 C.ar  193  TYR193     -0.0009
     15  CD2      -40.7250  -22.4800  -78.2720 C.ar  193  TYR193     -0.0009
     16  CE1      -38.5190  -21.3320  -79.4990 C.ar  193  TYR193      0.0417
     17  CE2      -40.5040  -21.1110  -78.1710 C.ar  193  TYR193      0.0417
     18  CZ       -39.4040  -20.5420  -78.7830 C.ar  193  TYR193      0.1957
     19  OH       -39.1990  -19.1790  -78.6750 O.3   193  TYR193     -0.2866
     20  N        -40.6860  -24.9050  -76.0330 N.am  194  THR194     -0.1951
     21  CA       -40.9300  -24.1960  -74.7740 C.3   194  THR194      0.1897
     22  C        -39.9140  -24.5810  -73.6810 C.2   194  THR194      0.2313
     23  O        -39.4840  -23.7260  -72.9170 O.2   194  THR194     -0.2863
     24  CB       -42.3910  -24.4000  -74.2820 C.3   194  THR194      0.1794
     25  OG1      -43.2880  -23.7440  -75.1860 O.3   194  THR194     -0.2208
     26  CG2      -42.6040  -23.8290  -72.8680 C.3   194  THR194      0.0378
     27  N        -47.8260   -8.9460  -86.4480 N.3   275  ARG275     -0.1231
     28  CA       -46.9410   -9.9550  -87.0640 C.3   275  ARG275      0.1694
     29  C        -47.6190  -11.0330  -87.9290 C.2   275  ARG275      0.2592
     30  O        -46.9310  -11.7110  -88.6870 O.2   275  ARG275     -0.2718
     31  CB       -46.0540  -10.6410  -86.0050 C.3   275  ARG275      0.0321
     32  CG       -46.8060  -11.4120  -84.9280 C.3   275  ARG275      0.0489
     33  CD       -45.8400  -12.2240  -84.0490 C.3   275  ARG275      0.2205
     34  NE       -45.2190  -13.2980  -84.8190 N.pl3 275  ARG275     -0.0865
     35  CZ       -45.8120  -14.4510  -85.1240 C.cat 275  ARG275      0.5346
     36  NH1      -47.0420  -14.7180  -84.7030 N.pl3 275  ARG275      0.1354
     37  NH2      -45.1680  -15.3540  -85.8530 N.pl3 275  ARG275      0.1354
     38  N        -48.9380  -11.2030  -87.8170 N.am  276  ASN276     -0.1974
     39  CA       -49.6620  -12.1700  -88.6660 C.3   276  ASN276      0.1688
     40  C        -50.2430  -11.5540  -89.9500 C.2   276  ASN276      0.2292
     41  O        -50.9400  -12.2320  -90.7070 O.2   276  ASN276     -0.2864
     42  CB       -50.7790  -12.8660  -87.8730 C.3   276  ASN276      0.1181
     43  CG       -50.2800  -13.5110  -86.5920 C.2   276  ASN276      0.2629
     44  OD1      -50.6500  -13.0960  -85.4890 O.2   276  ASN276     -0.2716
     45  ND2      -49.4460  -14.5200  -86.7240 N.am  276  ASN276     -0.0877
     46  N        -41.5300  -10.2560  -78.0540 N.3   320  TRP320     -0.1241
     47  CA       -41.8640  -11.2840  -79.0510 C.3   320  TRP320      0.1605
     48  C        -40.8450  -11.3880  -80.1940 C.2   320  TRP320      0.2264
     49  O        -40.6350  -12.4720  -80.7370 O.2   320  TRP320     -0.2867
     50  CB       -43.2920  -11.1270  -79.6020 C.3   320  TRP320      0.0550
     51  CG       -43.9150  -12.4630  -79.9140 C.ar  320  TRP320      0.0003
     52  CD1      -44.0560  -13.0440  -81.1490 C.ar  320  TRP320      0.0946
     53  CD2      -44.4320  -13.4010  -78.9680 C.ar  320  TRP320      0.0152
     54  NE1      -44.6440  -14.2810  -81.0230 N.ar  320  TRP320     -0.2442
     55  CE2      -44.8800  -14.5280  -79.6950 C.ar  320  TRP320      0.0810
     56  CE3      -44.5630  -13.4000  -77.5730 C.ar  320  TRP320      0.0012
     57  CZ2      -45.4530  -15.6370  -79.0740 C.ar  320  TRP320      0.0191
     58  CZ3      -45.1370  -14.5030  -76.9570 C.ar  320  TRP320      0.0001
     59  CH2      -45.5730  -15.6070  -77.7090 C.ar  320  TRP320      0.0015
     60  N        -38.4880  -13.8120  -78.8520 N.3   323  PHE323     -0.1227
     61  CA       -39.1600  -15.1180  -78.9050 C.3   323  PHE323      0.1736
     62  C        -38.9980  -15.7650  -80.2870 C.2   323  PHE323      0.2595
     63  O        -38.6920  -16.9640  -80.3980 O.2   323  PHE323     -0.2718
     64  CB       -40.6390  -14.9290  -78.5300 C.3   323  PHE323      0.0547
     65  CG       -41.4750  -16.1890  -78.5810 C.ar  323  PHE323     -0.0202
     66  CD1      -41.6620  -16.9620  -77.4480 C.ar  323  PHE323     -0.0042
     67  CD2      -42.1110  -16.5730  -79.7630 C.ar  323  PHE323     -0.0042
     68  CE1      -42.4490  -18.1040  -77.4910 C.ar  323  PHE323     -0.0003
     69  CE2      -42.8980  -17.7110  -79.8140 C.ar  323  PHE323     -0.0003
     70  CZ       -43.0650  -18.4800  -78.6810 C.ar  323  PHE323     -0.0000
     71  N        -39.1690  -14.9560  -81.3330 N.am  324  GLU324     -0.1979
     72  CA       -39.0530  -15.4340  -82.7050 C.3   324  GLU324      0.1602
     73  C        -37.6000  -15.6950  -83.1050 C.2   324  GLU324      0.2287
     74  O        -37.3190  -16.6580  -83.8180 O.2   324  GLU324     -0.2864
     75  CB       -39.7110  -14.4560  -83.6840 C.3   324  GLU324      0.0415
     76  CG       -41.2300  -14.3720  -83.5750 C.3   324  GLU324      0.1163
     77  CD       -41.9180  -15.7040  -83.8170 C.2   324  GLU324      0.3649
     78  OE1      -41.3740  -16.5190  -84.5900 O.co2 324  GLU324     -0.2457
     79  OE2      -42.9980  -15.9400  -83.2340 O.co2 324  GLU324     -0.2457
     80  N        -36.7570  -19.0760  -81.8150 N.3   327  TRP327     -0.1241
     81  CA       -37.1810  -20.0920  -82.7900 C.3   327  TRP327      0.1605
     82  C        -36.1220  -20.2810  -83.8850 C.2   327  TRP327      0.2264
     83  O        -35.8110  -21.4090  -84.2710 O.2   327  TRP327     -0.2867
     84  CB       -38.5410  -19.7420  -83.4170 C.3   327  TRP327      0.0550
     85  CG       -39.7230  -20.3140  -82.6700 C.ar  327  TRP327      0.0003
     86  CD1      -40.6120  -19.6310  -81.8910 C.ar  327  TRP327      0.0946
     87  CD2      -40.1290  -21.6880  -82.6310 C.ar  327  TRP327      0.0152
     88  NE1      -41.5480  -20.4930  -81.3700 N.ar  327  TRP327     -0.2442
     89  CE2      -41.2800  -21.7620  -81.8180 C.ar  327  TRP327      0.0810
     90  CE3      -39.6420  -22.8630  -83.2240 C.ar  327  TRP327      0.0012
     91  CZ2      -41.9440  -22.9650  -81.5670 C.ar  327  TRP327      0.0191
     92  CZ3      -40.3070  -24.0570  -82.9780 C.ar  327  TRP327      0.0001
     93  CH2      -41.4460  -24.0990  -82.1570 C.ar  327  TRP327      0.0015
     94  N        -34.3130  -23.9910  -84.4950 N.3   331  PHE331     -0.1241
     95  CA       -34.2090  -24.7290  -85.7540 C.3   331  PHE331      0.1605
     96  C        -32.7450  -24.9340  -86.1990 C.2   331  PHE331      0.2264
     97  O        -32.4280  -25.9460  -86.8130 O.2   331  PHE331     -0.2867
     98  CB       -35.0220  -24.0630  -86.8700 C.3   331  PHE331      0.0534
     99  CG       -36.5070  -24.3000  -86.7780 C.ar  331  PHE331     -0.0203
    100  CD1      -37.0180  -25.5870  -86.7200 C.ar  331  PHE331     -0.0042
    101  CD2      -37.3970  -23.2320  -86.7870 C.ar  331  PHE331     -0.0042
    102  CE1      -38.3910  -25.8050  -86.6440 C.ar  331  PHE331     -0.0003
    103  CE2      -38.7690  -23.4380  -86.7160 C.ar  331  PHE331     -0.0003
    104  CZ       -39.2680  -24.7260  -86.6520 C.ar  331  PHE331     -0.0000
    105  N        -44.9170  -14.6620  -92.8560 N.3   390  ASN390     -0.1225
    106  CA       -44.9430  -15.8600  -92.0030 C.3   390  ASN390      0.1785
    107  C        -46.2960  -16.5790  -92.0170 C.2   390  ASN390      0.2597
    108  O        -46.3530  -17.7990  -92.1190 O.2   390  ASN390     -0.2718
    109  CB       -44.5820  -15.5140  -90.5540 C.3   390  ASN390      0.1169
    110  CG       -44.6820  -16.7150  -89.6290 C.2   390  ASN390      0.2627
    111  OD1      -45.5290  -16.7580  -88.7400 O.2   390  ASN390     -0.2716
    112  ND2      -43.8290  -17.7070  -89.8540 N.am  390  ASN390     -0.0877
    113  N        -47.3730  -15.8120  -91.9020 N.am  391  ARG391     -0.1979
    114  CA       -48.7280  -16.3720  -91.9250 C.3   391  ARG391      0.1597
    115  C        -48.9740  -17.0900  -93.2570 C.2   391  ARG391      0.2287
    116  O        -49.4320  -18.2370  -93.2780 O.2   391  ARG391     -0.2864
    117  CB       -49.7480  -15.2500  -91.6930 C.3   391  ARG391      0.0334
    118  CG       -51.2200  -15.6660  -91.6550 C.3   391  ARG391      0.0492
    119  CD       -51.5370  -16.8370  -90.7400 C.3   391  ARG391      0.2205
    120  NE       -50.9580  -16.7440  -89.3940 N.pl3 391  ARG391     -0.0865
    121  CZ       -51.4650  -17.3430  -88.3140 C.cat 391  ARG391      0.5346
    122  NH1      -52.5870  -18.0420  -88.3920 N.pl3 391  ARG391      0.1354
    123  NH2      -50.8580  -17.2240  -87.1360 N.pl3 391  ARG391      0.1354
    124  N        -47.0510  -20.4960  -93.6240 N.3   394  GLN394     -0.1245
    125  CA       -47.7510  -21.5470  -92.9010 C.3   394  GLN394      0.1566
    126  C        -48.9560  -22.0480  -93.7020 C.2   394  GLN394      0.2260
    127  O        -49.1870  -23.2550  -93.7930 O.2   394  GLN394     -0.2867
    128  CB       -48.2130  -21.0470  -91.5350 C.3   394  GLN394      0.0367
    129  CG       -47.0850  -20.7510  -90.5490 C.3   394  GLN394      0.0905
    130  CD       -47.5870  -20.0390  -89.3140 C.2   394  GLN394      0.2608
    131  OE1      -48.0180  -20.6760  -88.3480 O.2   394  GLN394     -0.2717
    132  NE2      -47.5350  -18.7050  -89.3350 N.am  394  GLN394     -0.0878
    133  N        -39.2440  -25.5620  -90.6730 N.3   430  ASN430     -0.1240
    134  CA       -40.6430  -25.1230  -90.7250 C.3   430  ASN430      0.1653
    135  C        -41.5060  -26.0110  -91.6300 C.2   430  ASN430      0.2266
    136  O        -42.6680  -26.2720  -91.3090 O.2   430  ASN430     -0.2867
    137  CB       -40.7530  -23.6490  -91.1550 C.3   430  ASN430      0.1155
    138  CG       -40.5830  -22.6880  -89.9890 C.2   430  ASN430      0.2627
    139  OD1      -41.5130  -22.4820  -89.2060 O.2   430  ASN430     -0.2716
    140  ND2      -39.3960  -22.0970  -89.8650 N.am  430  ASN430     -0.0877
    141  N        -42.1530  -29.2500  -89.7310 N.3   433  TYR433     -0.1241
    142  CA       -43.0780  -28.8730  -88.6530 C.3   433  TYR433      0.1605
    143  C        -44.5060  -28.7990  -89.1890 C.2   433  TYR433      0.2264
    144  O        -45.4130  -29.4350  -88.6380 O.2   433  TYR433     -0.2867
    145  CB       -42.6630  -27.5290  -88.0390 C.3   433  TYR433      0.0534
    146  CG       -43.5420  -27.0110  -86.9120 C.ar  433  TYR433     -0.0201
    147  CD1      -43.2130  -27.2440  -85.5800 C.ar  433  TYR433     -0.0009
    148  CD2      -44.6860  -26.2530  -87.1790 C.ar  433  TYR433     -0.0009
    149  CE1      -44.0090  -26.7490  -84.5400 C.ar  433  TYR433      0.0417
    150  CE2      -45.4870  -25.7560  -86.1500 C.ar  433  TYR433      0.0417
    151  CZ       -45.1380  -26.0080  -84.8340 C.ar  433  TYR433      0.1957
    152  OH       -45.9240  -25.5240  -83.8100 O.3   433  TYR433     -0.2866
    153  N        -40.6100  -31.1730  -85.8570 N.3   439  ASN439     -0.1225
    154  CA       -40.7730  -30.8240  -84.4560 C.3   439  ASN439      0.1785
    155  C        -42.2700  -30.8080  -84.0980 C.2   439  ASN439      0.2597
    156  O        -43.1090  -30.4780  -84.9350 O.2   439  ASN439     -0.2718
    157  CB       -40.0970  -29.4750  -84.1560 C.3   439  ASN439      0.1169
    158  CG       -40.0630  -29.1500  -82.6620 C.2   439  ASN439      0.2627
    159  OD1      -40.7340  -28.2320  -82.2010 O.2   439  ASN439     -0.2716
    160  ND2      -39.2810  -29.9110  -81.9040 N.am  439  ASN439     -0.0877
    161  N        -42.5850  -31.1870  -82.8600 N.am  440  ASP440     -0.1974
    162  CA       -43.9670  -31.2550  -82.3640 C.3   440  ASP440      0.1709
    163  C        -44.9300  -31.8960  -83.3810 C.2   440  ASP440      0.2293
    164  O        -45.8410  -31.2380  -83.8780 O.2   440  ASP440     -0.2864
    165  CB       -44.4690  -29.8630  -81.9480 C.3   440  ASP440      0.1436
    166  CG       -45.8220  -29.9150  -81.2300 C.2   440  ASP440      0.3671
    167  OD1      -46.0880  -30.9000  -80.5120 O.co2 440  ASP440     -0.2456
    168  OD2      -46.6250  -28.9790  -81.3910 O.co2 440  ASP440     -0.2456
    169  N        -47.9240  -33.6850  -85.1820 N.3   442  ARG442     -0.1245
    170  CA       -49.3650  -33.8930  -84.9830 C.3   442  ARG442      0.1563
    171  C        -50.0230  -34.0650  -86.3470 C.2   442  ARG442      0.2260
    172  O        -49.6030  -33.4330  -87.3220 O.2   442  ARG442     -0.2867
    173  CB       -50.0420  -32.6930  -84.3020 C.3   442  ARG442      0.0307
    174  CG       -49.2340  -31.9150  -83.2830 C.3   442  ARG442      0.0489
    175  CD       -49.9160  -30.5810  -82.9590 C.3   442  ARG442      0.2205
    176  NE       -51.3560  -30.7210  -82.6840 N.pl3 442  ARG442     -0.0865
    177  CZ       -51.9640  -30.3840  -81.5420 C.cat 442  ARG442      0.5346
    178  NH1      -51.2910  -29.8530  -80.5250 N.pl3 442  ARG442      0.1354
    179  NH2      -53.2750  -30.5600  -81.4240 N.pl3 442  ARG442      0.1354
    180  N        -53.1410  -33.1590  -86.9450 N.3   444  ASP444     -0.1225
    181  CA       -54.2340  -32.1790  -87.0320 C.3   444  ASP444      0.1805
    182  C        -53.7620  -30.7150  -87.1310 C.2   444  ASP444      0.2598
    183  O        -54.5150  -29.7900  -86.8240 O.2   444  ASP444     -0.2718
    184  CB       -55.2220  -32.3690  -85.8600 C.3   444  ASP444      0.1424
    185  CG       -54.5530  -32.3180  -84.4860 C.2   444  ASP444      0.3668
    186  OD1      -55.2910  -32.2270  -83.4720 O.co2 444  ASP444     -0.2456
    187  OD2      -53.3050  -32.3770  -84.4090 O.co2 444  ASP444     -0.2456
    188  N        -52.5250  -30.5030  -87.5660 N.am  445  ARG445     -0.1966
    189  CA       -52.0390  -29.1480  -87.8520 C.3   445  ARG445      0.1729
    190  C        -52.5330  -28.7790  -89.2500 C.2   445  ARG445      0.2616
    191  O        -51.8470  -29.0150  -90.2520 O.2   445  ARG445     -0.2715
    192  CB       -50.5090  -29.0690  -87.7480 C.3   445  ARG445      0.0348
    193  CG       -49.9260  -27.6800  -88.0410 C.3   445  ARG445      0.0492
    194  CD       -48.4700  -27.5340  -87.5930 C.3   445  ARG445      0.2205
    195  NE       -48.3350  -27.6330  -86.1380 N.pl3 445  ARG445     -0.0865
    196  CZ       -47.6310  -28.5540  -85.4820 C.cat 445  ARG445      0.5346
    197  NH1      -46.9330  -29.4820  -86.1300 N.pl3 445  ARG445      0.1354
    198  NH2      -47.6130  -28.5380  -84.1570 N.pl3 445  ARG445      0.1354
    199  N        -53.7490  -28.2390  -89.2980 N.am  446  TYR446     -0.1960
    200  CA       -54.4270  -27.8890  -90.5420 C.3   446  TYR446      0.1771
    201  C        -54.9390  -26.4570  -90.4620 C.2   446  TYR446      0.2620
    202  O        -55.6140  -26.0950  -89.5030 O.2   446  TYR446     -0.2715
    203  CB       -55.6070  -28.8470  -90.7900 C.3   446  TYR446      0.0574
    204  CG       -56.3880  -28.5370  -92.0460 C.ar  446  TYR446     -0.0198
    205  CD1      -56.0440  -29.1230  -93.2630 C.ar  446  TYR446     -0.0009
    206  CD2      -57.4560  -27.6390  -92.0270 C.ar  446  TYR446     -0.0009
    207  CE1      -56.7500  -28.8340  -94.4320 C.ar  446  TYR446      0.0417
    208  CE2      -58.1630  -27.3430  -93.1810 C.ar  446  TYR446      0.0417
    209  CZ       -57.8080  -27.9460  -94.3830 C.ar  446  TYR446      0.1957
    210  OH       -58.5120  -27.6640  -95.5320 O.3   446  TYR446     -0.2866
    211  N        -54.6290  -25.6520  -91.4760 N.am  447  PHE447     -0.1960
    212  CA       -55.1100  -24.2730  -91.5560 C.3   447  PHE447      0.1771
    213  C        -56.3630  -24.2050  -92.4330 C.2   447  PHE447      0.2620
    214  O        -56.3200  -24.5680  -93.6120 O.2   447  PHE447     -0.2715
    215  CB       -54.0300  -23.3500  -92.1370 C.3   447  PHE447      0.0574
    216  CG       -52.8750  -23.0790  -91.2000 C.ar  447  PHE447     -0.0200
    217  CD1      -52.6520  -21.7980  -90.7040 C.ar  447  PHE447     -0.0042
    218  CD2      -52.0020  -24.0910  -90.8350 C.ar  447  PHE447     -0.0042
    219  CE1      -51.5840  -21.5360  -89.8540 C.ar  447  PHE447     -0.0003
    220  CE2      -50.9330  -23.8390  -89.9820 C.ar  447  PHE447     -0.0003
    221  CZ       -50.7290  -22.5560  -89.4870 C.ar  447  PHE447     -0.0000
    222  N        -57.4770  -23.7420  -91.8680 N.am  448  SER448     -0.1950
    223  CA       -58.6900  -23.5180  -92.6690 C.3   448  SER448      0.1924
    224  C        -58.5560  -22.2560  -93.5180 C.2   448  SER448      0.2314
    225  O        -58.4640  -21.1520  -92.9830 O.2   448  SER448     -0.2863
    226  CB       -59.9280  -23.3970  -91.7820 C.3   448  SER448      0.2116
    227  OG       -61.0360  -22.9150  -92.5190 O.3   448  SER448     -0.2180
    228  N        -61.2690  -19.4440  -92.8100 N.3   451  LYS451     -0.1231
    229  CA       -60.9910  -18.7770  -91.5380 C.3   451  LYS451      0.1693
    230  C        -59.7670  -17.8650  -91.6340 C.2   451  LYS451      0.2591
    231  O        -59.7920  -16.7340  -91.1530 O.2   451  LYS451     -0.2718
    232  CB       -60.7900  -19.8100  -90.4260 C.3   451  LYS451      0.0285
    233  CG       -60.5450  -19.2170  -89.0370 C.3   451  LYS451      0.0035
    234  CD       -60.2440  -20.3100  -88.0180 C.3   451  LYS451      0.0206
    235  CE       -59.8990  -19.7350  -86.6500 C.3   451  LYS451      0.1093
    236  NZ       -59.5200  -20.8070  -85.6830 N.3   451  LYS451     -0.1314
    237  N        -58.6980  -18.3560  -92.2550 N.am  452  GLN452     -0.1979
    238  CA       -57.4750  -17.5650  -92.3820 C.3   452  GLN452      0.1601
    239  C        -57.7370  -16.2950  -93.1840 C.2   452  GLN452      0.2287
    240  O        -57.3020  -15.2080  -92.7990 O.2   452  GLN452     -0.2864
    241  CB       -56.3490  -18.3900  -93.0210 C.3   452  GLN452      0.0394
    242  CG       -55.9000  -19.5920  -92.1940 C.3   452  GLN452      0.0908
    243  CD       -55.4510  -19.2190  -90.7960 C.2   452  GLN452      0.2608
    244  OE1      -54.6040  -18.3400  -90.6140 O.2   452  GLN452     -0.2717
    245  NE2      -56.0140  -19.8910  -89.7950 N.am  452  GLN452     -0.0878
    246  N        -57.1610  -12.7690  -91.2360 N.3   456  TYR456     -0.1241
    247  CA       -55.9300  -12.0350  -91.5620 C.3   456  TYR456      0.1605
    248  C        -55.9750  -11.2580  -92.8830 C.2   456  TYR456      0.2264
    249  O        -55.0250  -10.5450  -93.2090 O.2   456  TYR456     -0.2867
    250  CB       -54.7300  -12.9840  -91.4980 C.3   456  TYR456      0.0534
    251  CG       -54.6610  -13.6740  -90.1580 C.ar  456  TYR456     -0.0201
    252  CD1      -54.2910  -12.9740  -89.0120 C.ar  456  TYR456     -0.0009
    253  CD2      -55.0250  -15.0080  -90.0220 C.ar  456  TYR456     -0.0009
    254  CE1      -54.2550  -13.5970  -87.7640 C.ar  456  TYR456      0.0417
    255  CE2      -54.9930  -15.6390  -88.7810 C.ar  456  TYR456      0.0417
    256  CZ       -54.6080  -14.9270  -87.6590 C.ar  456  TYR456      0.1957
    257  OH       -54.5870  -15.5540  -86.4330 O.3   456  TYR456     -0.2866
    258  N        -61.1620  -29.4690  -95.2370 N.3   495  HIS495     -0.1241
    259  CA       -62.0220  -29.0960  -94.1000 C.3   495  HIS495      0.1621
    260  C        -62.6680  -27.7070  -94.1820 C.2   495  HIS495      0.2264
    261  O        -63.6930  -27.4730  -93.5360 O.2   495  HIS495     -0.2867
    262  CB       -61.2590  -29.2150  -92.7780 C.3   495  HIS495      0.0745
    263  CG       -60.7760  -30.5980  -92.4840 C.ar  495  HIS495      0.0817
    264  ND1      -59.4410  -30.9020  -92.3250 N.ar  495  HIS495     -0.2268
    265  CD2      -61.4480  -31.7640  -92.3400 C.ar  495  HIS495      0.1154
    266  CE1      -59.3130  -32.1950  -92.0840 C.ar  495  HIS495      0.1986
    267  NE2      -60.5160  -32.7400  -92.0900 N.ar  495  HIS495     -0.2212
@<TRIPOS>BOND
     1   210   209    1
     2   258   259    1
     3   207   209   ar
     4   207   205   ar
     5   209   208   ar
     6   260   259    1
     7   260   261    2
     8   259   262    1
     9   127   126    2
    10   126   125    1
    11   124   125    1
    12   214   213    2
    13   224   225    2
    14   224   223    1
    15   116   115    2
    16   205   204   ar
    17   115   114    1
    18   249   248    2
    19   239   240    2
    20   239   238    1
    21   208   206   ar
    22   241   238    1
    23   241   242    1
    24   125   128    1
    25   248   247    1
    26   105   106    1
    27   228   229    1
    28   262   263    1
    29   223   222    1
    30   223   226    1
    31   227   226    1
    32   263   265   ar
    33   263   264   ar
    34   213   222   am
    35   213   212    1
    36   238   237    1
    37   265   267   ar
    38   264   266   ar
    39   237   230   am
    40   242   243    1
    41   215   212    1
    42   215   216    1
    43   108   107    2
    44   267   266   ar
    45   204   206   ar
    46   204   203    1
    47   107   106    1
    48   107   113   am
    49   106   109    1
    50   114   113    1
    51   114   117    1
    52   117   118    1
    53   118   119    1
    54   230   229    1
    55   230   231    2
    56   135   136    2
    57   135   134    1
    58   247   250    1
    59   247   246    1
    60   212   211    1
    61   229   232    1
    62   128   129    1
    63   250   251    1
    64   211   201   am
    65   216   218   ar
    66   216   217   ar
    67   137   134    1
    68   137   138    1
    69   218   220   ar
    70   243   244    2
    71   243   245   am
    72   203   200    1
    73   119   120    1
    74   134   133    1
    75    41    40    2
    76   217   219   ar
    77   109   110    1
    78   129   130    1
    79   200   201    1
    80   200   199    1
    81   201   202    2
    82   232   233    1
    83   191   190    2
    84   251   253   ar
    85   251   252   ar
    86   253   255   ar
    87   138   140   am
    88   138   139    2
    89   220   221   ar
    90    40    39    1
    91   219   221   ar
    92   112   110   am
    93   141   142    1
    94   110   111    2
    95   120   121    2
    96   132   130   am
    97   130   131    2
    98   199   190   am
    99   190   189    1
   100   143   142    1
   101   143   144    2
   102   233   234    1
   103   252   254   ar
   104   255   256   ar
   105    30    29    2
   106    39    42    1
   107    39    38    1
   108   142   145    1
   109   122   121    1
   110   121   123    1
   111   193   192    1
   112   193   194    1
   113   145   146    1
   114   234   235    1
   115    29    38   am
   116    29    28    1
   117    42    43    1
   118   189   192    1
   119   189   188    1
   120   254   256   ar
   121   256   257    1
   122   194   195    1
   123   188   182   am
   124   172   171    2
   125   148   146   ar
   126   148   150   ar
   127   182   181    1
   128   182   183    2
   129    28    27    1
   130    28    31    1
   131   181   180    1
   132   181   184    1
   133   146   147   ar
   134    98    99    1
   135    98    95    1
   136    97    96    2
   137   101    99   ar
   138   101   103   ar
   139    99   100   ar
   140    45    43   am
   141   100   102   ar
   142   103   104   ar
   143   104   102   ar
   144   235   236    1
   145    43    44    2
   146   171   170    1
   147    96    95    1
   148   150   151   ar
   149   195   196    2
   150   197   196    1
   151    31    32    1
   152   184   185    1
   153   153   154    1
   154    37    35    1
   155    95    94    1
   156   147   149   ar
   157   196   198    1
   158   169   170    1
   159    35    34    2
   160    35    36    1
   161   170   173    1
   162   156   155    2
   163    32    33    1
   164   151   149   ar
   165   151   152    1
   166    34    33    1
   167    78    77   ar
   168   185   187   ar
   169   185   186   ar
   170   154   157    1
   171   154   155    1
   172   173   174    1
   173    83    82    2
   174   157   158    1
   175   155   161   am
   176    82    81    1
   177   164   163    2
   178    74    73    2
   179    77    76    1
   180    77    79   ar
   181    75    76    1
   182    75    72    1
   183    84    81    1
   184    84    85    1
   185   163   162    1
   186   174   175    1
   187    90    92   ar
   188    90    87   ar
   189    73    72    1
   190    92    93   ar
   191   175   176    1
   192   161   162    1
   193    81    80    1
   194    72    71    1
   195   176   177    2
   196    85    87   ar
   197    85    86   ar
   198   158   159    2
   199   158   160   am
   200    87    89   ar
   201   162   165    1
   202    93    91   ar
   203   165   166    1
   204    86    88   ar
   205    89    91   ar
   206    89    88   ar
   207   177   179    1
   208   177   178    1
   209   168   166   ar
   210    71    62   am
   211   166   167   ar
   212    52    54   ar
   213    52    51   ar
   214    54    55   ar
   215    49    48    2
   216    63    62    2
   217    62    61    1
   218    48    47    1
   219    51    50    1
   220    51    53   ar
   221    69    67   ar
   222    69    70   ar
   223    67    65   ar
   224    55    57   ar
   225    55    53   ar
   226    50    47    1
   227    14    16   ar
   228    14    13   ar
   229    16    18   ar
   230    12    13    1
   231    12     9    1
   232    57    59   ar
   233    47    46    1
   234    13    15   ar
   235    53    56   ar
   236    61    60    1
   237    61    64    1
   238    18    19    1
   239    18    17   ar
   240    70    68   ar
   241    65    64    1
   242    65    66   ar
   243    15    17   ar
   244     9     8    1
   245     9    10    1
   246     8     3   am
   247    59    58   ar
   248    56    58   ar
   249    68    66   ar
   250     1     2    1
   251     2     3    1
   252     2     5    1
   253     3     4    2
   254    10    11    2
   255    10    20   am
   256    20    21    1
   257     7     5    1
   258     5     6    1
   259    25    24    1
   260    21    24    1
   261    21    22    1
   262    24    26    1
   263    22    23    2
