@<TRIPOS>MOLECULE
tmp/2vtbA00.pdb
 272 270 0 0 0
SMALL
GASTEIGER

@<TRIPOS>ATOM
      1  N        -21.3950   30.3790  -44.2540 N.3   194  VAL194     -0.1231
      2  CA       -20.3050   29.4040  -44.2720 C.3   194  VAL194      0.1692
      3  C        -20.8770   27.9940  -44.0740 C.2   194  VAL194      0.2592
      4  O        -21.5960   27.7450  -43.1030 O.2   194  VAL194     -0.2718
      5  CB       -19.2600   29.6940  -43.1630 C.3   194  VAL194      0.0266
      6  CG1      -18.0920   28.7080  -43.2550 C.3   194  VAL194      0.0020
      7  CG2      -18.7510   31.1430  -43.2570 C.3   194  VAL194      0.0020
      8  N        -20.5610   27.0870  -45.0010 N.am  195  TYR195     -0.1962
      9  CA       -21.0620   25.7040  -44.9600 C.3   195  TYR195      0.1771
     10  C        -20.7660   24.9960  -43.6460 C.2   195  TYR195      0.2620
     11  O        -21.6360   24.3200  -43.0820 O.2   195  TYR195     -0.2715
     12  CB       -20.4610   24.8720  -46.1000 C.3   195  TYR195      0.0574
     13  CG       -20.6300   23.3710  -45.9400 C.ar  195  TYR195     -0.0198
     14  CD1      -21.7950   22.7300  -46.3530 C.ar  195  TYR195     -0.0009
     15  CD2      -19.6170   22.5920  -45.3830 C.ar  195  TYR195     -0.0009
     16  CE1      -21.9430   21.3420  -46.2190 C.ar  195  TYR195      0.0417
     17  CE2      -19.7590   21.2110  -45.2390 C.ar  195  TYR195      0.0417
     18  CZ       -20.9170   20.5900  -45.6660 C.ar  195  TYR195      0.1957
     19  OH       -21.0550   19.2190  -45.5110 O.3   195  TYR195     -0.2866
     20  N        -19.5320   25.1240  -43.1720 N.am  196  THR196     -0.1951
     21  CA       -19.1300   24.4310  -41.9560 C.3   196  THR196      0.1897
     22  C        -20.0600   24.7910  -40.7900 C.2   196  THR196      0.2313
     23  O        -20.4250   23.9330  -39.9960 O.2   196  THR196     -0.2863
     24  CB       -17.6560   24.7220  -41.6020 C.3   196  THR196      0.1794
     25  OG1      -16.8140   24.2210  -42.6450 O.3   196  THR196     -0.2208
     26  CG2      -17.2670   24.0510  -40.2860 C.3   196  THR196      0.0378
     27  N        -12.8170    9.3010  -53.7980 N.3   277  ARG277     -0.1231
     28  CA       -13.7730   10.2650  -54.3720 C.3   277  ARG277      0.1694
     29  C        -13.1870   11.3970  -55.2160 C.2   277  ARG277      0.2592
     30  O        -13.9350   12.0900  -55.9020 O.2   277  ARG277     -0.2718
     31  CB       -14.6770   10.8600  -53.2810 C.3   277  ARG277      0.0321
     32  CG       -13.9640   11.6620  -52.1980 C.3   277  ARG277      0.0489
     33  CD       -14.9640   12.4430  -51.3630 C.3   277  ARG277      0.2205
     34  NE       -15.5100   13.5690  -52.1170 N.pl3 277  ARG277     -0.0865
     35  CZ       -14.9140   14.7540  -52.2520 C.cat 277  ARG277      0.5346
     36  NH1      -13.7410   15.0040  -51.6740 N.pl3 277  ARG277      0.1354
     37  NH2      -15.4960   15.7040  -52.9700 N.pl3 277  ARG277      0.1354
     38  N        -11.8730   11.5980  -55.1640 N.am  278  ASN278     -0.1974
     39  CA       -11.2110   12.6000  -56.0120 C.3   278  ASN278      0.1688
     40  C        -10.6610   12.0170  -57.3160 C.2   278  ASN278      0.2292
     41  O         -9.9350   12.7000  -58.0490 O.2   278  ASN278     -0.2864
     42  CB       -10.1040   13.3080  -55.2260 C.3   278  ASN278      0.1181
     43  CG       -10.6070   13.8750  -53.9040 C.2   278  ASN278      0.2629
     44  OD1      -10.3510   13.3180  -52.8380 O.2   278  ASN278     -0.2716
     45  ND2      -11.3560   14.9590  -53.9750 N.am  278  ASN278     -0.0877
     46  N        -18.5850   10.2490  -44.9170 N.3   322  TRP322     -0.1241
     47  CA       -18.3060   11.2940  -45.8990 C.3   322  TRP322      0.1605
     48  C        -19.3700   11.3770  -46.9890 C.2   322  TRP322      0.2264
     49  O        -19.6240   12.4600  -47.5220 O.2   322  TRP322     -0.2867
     50  CB       -16.9090   11.1610  -46.5280 C.3   322  TRP322      0.0550
     51  CG       -16.3570   12.5020  -46.9330 C.ar  322  TRP322      0.0003
     52  CD1      -16.3400   13.0500  -48.1940 C.ar  322  TRP322      0.0946
     53  CD2      -15.7890   13.4840  -46.0650 C.ar  322  TRP322      0.0152
     54  NE1      -15.7820   14.3030  -48.1580 N.ar  322  TRP322     -0.2442
     55  CE2      -15.4360   14.5970  -46.8660 C.ar  322  TRP322      0.0810
     56  CE3      -15.5400   13.5340  -44.6850 C.ar  322  TRP322      0.0012
     57  CZ2      -14.8380   15.7420  -46.3330 C.ar  322  TRP322      0.0191
     58  CZ3      -14.9490   14.6770  -44.1540 C.ar  322  TRP322      0.0001
     59  CH2      -14.6070   15.7660  -44.9800 C.ar  322  TRP322      0.0015
     60  N        -21.6810   13.7390  -45.5290 N.3   325  PHE325     -0.1227
     61  CA       -21.0560   15.0680  -45.6070 C.3   325  PHE325      0.1736
     62  C        -21.3410   15.7080  -46.9780 C.2   325  PHE325      0.2595
     63  O        -21.7380   16.8790  -47.0710 O.2   325  PHE325     -0.2718
     64  CB       -19.5510   14.9210  -45.3260 C.3   325  PHE325      0.0547
     65  CG       -18.7540   16.1950  -45.4450 C.ar  325  PHE325     -0.0202
     66  CD1      -18.4810   16.9710  -44.3260 C.ar  325  PHE325     -0.0042
     67  CD2      -18.2200   16.5840  -46.6710 C.ar  325  PHE325     -0.0042
     68  CE1      -17.7240   18.1380  -44.4390 C.ar  325  PHE325     -0.0003
     69  CE2      -17.4660   17.7450  -46.7890 C.ar  325  PHE325     -0.0003
     70  CZ       -17.2180   18.5210  -45.6770 C.ar  325  PHE325     -0.0000
     71  N        -21.1990   14.9130  -48.0340 N.am  326  GLU326     -0.1979
     72  CA       -21.4420   15.3820  -49.3900 C.3   326  GLU326      0.1602
     73  C        -22.9260   15.6270  -49.6890 C.2   326  GLU326      0.2287
     74  O        -23.2660   16.6030  -50.3570 O.2   326  GLU326     -0.2864
     75  CB       -20.8240   14.4150  -50.4040 C.3   326  GLU326      0.0415
     76  CG       -19.3030   14.3510  -50.3360 C.3   326  GLU326      0.1163
     77  CD       -18.6320   15.6790  -50.6550 C.2   326  GLU326      0.3649
     78  OE1      -19.2680   16.5450  -51.2950 O.co2 326  GLU326     -0.2457
     79  OE2      -17.4600   15.8530  -50.2690 O.co2 326  GLU326     -0.2457
     80  N        -23.7730   18.9600  -48.4240 N.3   329  TRP329     -0.1241
     81  CA       -23.4280   20.0160  -49.3840 C.3   329  TRP329      0.1605
     82  C        -24.5650   20.2330  -50.3820 C.2   329  TRP329      0.2264
     83  O        -24.8300   21.3670  -50.7850 O.2   329  TRP329     -0.2867
     84  CB       -22.1220   19.7080  -50.1430 C.3   329  TRP329      0.0550
     85  CG       -20.8880   20.2600  -49.4790 C.ar  329  TRP329      0.0003
     86  CD1      -19.9480   19.5590  -48.7820 C.ar  329  TRP329      0.0946
     87  CD2      -20.4640   21.6290  -49.4600 C.ar  329  TRP329      0.0152
     88  NE1      -18.9660   20.4060  -48.3250 N.ar  329  TRP329     -0.2442
     89  CE2      -19.2590   21.6830  -48.7270 C.ar  329  TRP329      0.0810
     90  CE3      -20.9840   22.8160  -49.9970 C.ar  329  TRP329      0.0012
     91  CZ2      -18.5610   22.8760  -48.5140 C.ar  329  TRP329      0.0191
     92  CZ3      -20.2980   24.0000  -49.7850 C.ar  329  TRP329      0.0001
     93  CH2      -19.0890   24.0200  -49.0530 C.ar  329  TRP329      0.0015
     94  N        -26.6130   23.9630  -50.7310 N.3   333  PHE333     -0.1241
     95  CA       -26.8460   24.7470  -51.9460 C.3   333  PHE333      0.1605
     96  C        -28.3340   24.8900  -52.2770 C.2   333  PHE333      0.2264
     97  O        -28.7520   25.9150  -52.7950 O.2   333  PHE333     -0.2867
     98  CB       -26.0850   24.1750  -53.1400 C.3   333  PHE333      0.0534
     99  CG       -24.6180   24.4550  -53.1060 C.ar  333  PHE333     -0.0203
    100  CD1      -24.1480   25.7600  -53.0120 C.ar  333  PHE333     -0.0042
    101  CD2      -23.7010   23.4230  -53.1770 C.ar  333  PHE333     -0.0042
    102  CE1      -22.7850   26.0250  -52.9800 C.ar  333  PHE333     -0.0003
    103  CE2      -22.3350   23.6840  -53.1560 C.ar  333  PHE333     -0.0003
    104  CZ       -21.8770   24.9810  -53.0580 C.ar  333  PHE333     -0.0000
    105  N        -16.2030   15.1950  -59.9030 N.3   392  ASN392     -0.1225
    106  CA       -16.1700   16.3690  -59.0300 C.3   392  ASN392      0.1785
    107  C        -14.8320   17.1030  -59.1050 C.2   392  ASN392      0.2597
    108  O        -14.7850   18.3340  -59.2110 O.2   392  ASN392     -0.2718
    109  CB       -16.4470   15.9590  -57.5800 C.3   392  ASN392      0.1169
    110  CG       -16.3910   17.1290  -56.6300 C.2   392  ASN392      0.2627
    111  OD1      -15.4850   17.2250  -55.7970 O.2   392  ASN392     -0.2716
    112  ND2      -17.3420   18.0440  -56.7680 N.am  392  ASN392     -0.0877
    113  N        -13.7490   16.3320  -59.0620 N.am  393  ARG393     -0.1979
    114  CA       -12.4080   16.8780  -59.2000 C.3   393  ARG393      0.1597
    115  C        -12.2590   17.6360  -60.5240 C.2   393  ARG393      0.2287
    116  O        -11.7800   18.7680  -60.5430 O.2   393  ARG393     -0.2864
    117  CB       -11.3640   15.7560  -59.0970 C.3   393  ARG393      0.0334
    118  CG        -9.9050   16.2150  -59.1540 C.3   393  ARG393      0.0492
    119  CD        -9.5710   17.4070  -58.2610 C.3   393  ARG393      0.2205
    120  NE        -9.9900   17.2380  -56.8690 N.pl3 393  ARG393     -0.0865
    121  CZ        -9.4370   17.8580  -55.8200 C.cat 393  ARG393      0.5346
    122  NH1       -8.3900   18.6710  -55.9620 N.pl3 393  ARG393      0.1354
    123  NH2       -9.9160   17.6310  -54.6000 N.pl3 393  ARG393      0.1354
    124  N        -14.2540   21.0540  -60.6380 N.3   396  GLN396     -0.1245
    125  CA       -13.5380   22.1230  -59.9410 C.3   396  GLN396      0.1566
    126  C        -12.4000   22.6730  -60.8050 C.2   396  GLN396      0.2260
    127  O        -12.2030   23.8830  -60.8950 O.2   396  GLN396     -0.2867
    128  CB       -12.9550   21.6230  -58.6240 C.3   396  GLN396      0.0367
    129  CG       -13.9630   21.2090  -57.5720 C.3   396  GLN396      0.0905
    130  CD       -13.2750   20.5870  -56.3850 C.2   396  GLN396      0.2608
    131  OE1      -12.7960   21.2880  -55.5020 O.2   396  GLN396     -0.2717
    132  NE2      -13.1920   19.2640  -56.3730 N.am  396  GLN396     -0.0878
    133  N        -22.0570   25.8240  -56.9790 N.3   432  ASN432     -0.1240
    134  CA       -20.6520   25.4520  -57.1170 C.3   432  ASN432      0.1653
    135  C        -19.8750   26.3800  -58.0510 C.2   432  ASN432      0.2266
    136  O        -18.6840   26.6210  -57.8260 O.2   432  ASN432     -0.2867
    137  CB       -20.5010   23.9940  -57.5850 C.3   432  ASN432      0.1155
    138  CG       -20.5850   23.0080  -56.4430 C.2   432  ASN432      0.2627
    139  OD1      -19.6250   22.8300  -55.6960 O.2   432  ASN432     -0.2716
    140  ND2      -21.7340   22.3740  -56.2890 N.am  432  ASN432     -0.0877
    141  N        -19.2260   29.5790  -56.0910 N.3   435  TYR435     -0.1227
    142  CA       -18.2110   29.1880  -55.0970 C.3   435  TYR435      0.1736
    143  C        -16.8350   29.1100  -55.7480 C.2   435  TYR435      0.2596
    144  O        -15.8810   29.7140  -55.2660 O.2   435  TYR435     -0.2718
    145  CB       -18.5680   27.8320  -54.4710 C.3   435  TYR435      0.0548
    146  CG       -17.7260   27.3990  -53.2790 C.ar  435  TYR435     -0.0200
    147  CD1      -18.1260   27.6970  -51.9790 C.ar  435  TYR435     -0.0009
    148  CD2      -16.5550   26.6550  -53.4480 C.ar  435  TYR435     -0.0009
    149  CE1      -17.3780   27.2860  -50.8780 C.ar  435  TYR435      0.0417
    150  CE2      -15.7940   26.2360  -52.3450 C.ar  435  TYR435      0.0417
    151  CZ       -16.2160   26.5590  -51.0630 C.ar  435  TYR435      0.1957
    152  OH       -15.4870   26.1660  -49.9620 O.3   435  TYR435     -0.2866
    153  N        -16.7480   28.3800  -56.8550 N.am  436  GLY436     -0.1957
    154  CA       -15.4950   28.2330  -57.5940 C.3   436  GLY436      0.1869
    155  C        -14.9850   29.5080  -58.2480 C.2   436  GLY436      0.2309
    156  O        -13.7800   29.6930  -58.3750 O.2   436  GLY436     -0.2863
    157  N        -19.4130   33.3510  -49.2390 N.3   442  ASP442     -0.1225
    158  CA       -18.3580   32.7860  -48.3960 C.3   442  ASP442      0.1790
    159  C        -17.1150   33.6940  -48.4210 C.2   442  ASP442      0.2439
    160  O        -16.7500   34.2090  -49.4810 O.2   442  ASP442     -0.2733
    161  CB       -18.0020   31.3580  -48.8470 C.3   442  ASP442      0.1423
    162  CG       -17.7250   31.2560  -50.3470 C.2   442  ASP442      0.3668
    163  OD1      -18.6060   31.6350  -51.1500 O.co2 442  ASP442     -0.2456
    164  OD2      -16.6270   30.7930  -50.7210 O.co2 442  ASP442     -0.2456
    165  N        -16.4850   33.9230  -47.2460 N.am  443  PRO443     -0.2729
    166  CA       -15.2840   34.7660  -47.1250 C.3   443  PRO443      0.1401
    167  C        -14.2130   34.5220  -48.1900 C.2   443  PRO443      0.2269
    168  O        -14.0590   33.4030  -48.6810 O.2   443  PRO443     -0.2865
    169  CB       -14.7500   34.4090  -45.7370 C.3   443  PRO443      0.0296
    170  CG       -15.9760   34.0850  -44.9520 C.3   443  PRO443      0.0237
    171  CD       -16.9280   33.4260  -45.9260 C.3   443  PRO443      0.0939
    172  N        -11.3460   33.6940  -50.5450 N.3   445  GLU445     -0.1231
    173  CA       -10.2180   32.7850  -50.7180 C.3   445  GLU445      0.1699
    174  C         -9.9290   32.7130  -52.2130 C.2   445  GLU445      0.2592
    175  O        -10.8600   32.6020  -53.0120 O.2   445  GLU445     -0.2718
    176  CB       -10.5680   31.3950  -50.1750 C.3   445  GLU445      0.0402
    177  CG        -9.3790   30.4410  -50.0380 C.3   445  GLU445      0.1161
    178  CD        -8.5860   30.6340  -48.7500 C.2   445  GLU445      0.3649
    179  OE1       -7.3530   30.4380  -48.7810 O.co2 445  GLU445     -0.2457
    180  OE2       -9.1900   30.9650  -47.7050 O.co2 445  GLU445     -0.2457
    181  N         -8.6540   32.7870  -52.5920 N.am  446  ASP446     -0.1960
    182  CA        -8.2590   32.7450  -54.0050 C.3   446  ASP446      0.1840
    183  C         -8.0680   31.2890  -54.4450 C.2   446  ASP446      0.2622
    184  O         -6.9450   30.7750  -54.4380 O.2   446  ASP446     -0.2715
    185  CB        -6.9740   33.5620  -54.2210 C.3   446  ASP446      0.1450
    186  CG        -6.5370   33.6170  -55.6860 C.2   446  ASP446      0.3671
    187  OD1       -7.0900   32.8670  -56.5240 O.co2 446  ASP446     -0.2456
    188  OD2       -5.6250   34.4150  -55.9980 O.co2 446  ASP446     -0.2456
    189  N         -9.1620   30.6480  -54.8570 N.am  447  ARG447     -0.1963
    190  CA        -9.1750   29.2060  -55.1370 C.3   447  ARG447      0.1729
    191  C         -8.6480   28.8470  -56.5390 C.2   447  ARG447      0.2616
    192  O         -9.3580   28.2640  -57.3590 O.2   447  ARG447     -0.2715
    193  CB       -10.5910   28.6470  -54.9470 C.3   447  ARG447      0.0348
    194  CG       -11.1930   28.9710  -53.5920 C.3   447  ARG447      0.0492
    195  CD       -12.4560   28.1700  -53.2960 C.3   447  ARG447      0.2205
    196  NE       -12.9230   28.4290  -51.9360 N.pl3 447  ARG447     -0.0865
    197  CZ       -12.3720   27.9240  -50.8310 C.cat 447  ARG447      0.5346
    198  NH1      -11.3240   27.1060  -50.8970 N.pl3 447  ARG447      0.1354
    199  NH2      -12.8730   28.2400  -49.6420 N.pl3 447  ARG447      0.1354
    200  N         -7.3910   29.1800  -56.7980 N.am  448  TYR448     -0.1960
    201  CA        -6.7480   28.8270  -58.0610 C.3   448  TYR448      0.1771
    202  C         -6.1920   27.4030  -58.0050 C.2   448  TYR448      0.2620
    203  O         -5.4280   27.0690  -57.1020 O.2   448  TYR448     -0.2715
    204  CB        -5.6190   29.8080  -58.3800 C.3   448  TYR448      0.0574
    205  CG        -4.9310   29.5080  -59.6880 C.ar  448  TYR448     -0.0198
    206  CD1       -5.3920   30.0630  -60.8830 C.ar  448  TYR448     -0.0009
    207  CD2       -3.8350   28.6480  -59.7430 C.ar  448  TYR448     -0.0009
    208  CE1       -4.7750   29.7720  -62.1000 C.ar  448  TYR448      0.0417
    209  CE2       -3.2080   28.3590  -60.9490 C.ar  448  TYR448      0.0417
    210  CZ        -3.6820   28.9230  -62.1270 C.ar  448  TYR448      0.1957
    211  OH        -3.0570   28.6390  -63.3270 O.3   448  TYR448     -0.2866
    212  N         -6.5690   26.5830  -58.9860 N.am  449  PHE449     -0.1960
    213  CA        -6.0460   25.2240  -59.1490 C.3   449  PHE449      0.1771
    214  C         -4.8700   25.2040  -60.1430 C.2   449  PHE449      0.2620
    215  O         -4.9970   25.6790  -61.2750 O.2   449  PHE449     -0.2715
    216  CB        -7.1380   24.2930  -59.6890 C.3   449  PHE449      0.0574
    217  CG        -8.1840   23.9180  -58.6870 C.ar  449  PHE449     -0.0200
    218  CD1       -8.3070   22.6020  -58.2590 C.ar  449  PHE449     -0.0042
    219  CD2       -9.0740   24.8640  -58.1970 C.ar  449  PHE449     -0.0042
    220  CE1       -9.2890   22.2360  -57.3460 C.ar  449  PHE449     -0.0003
    221  CE2      -10.0530   24.5070  -57.2810 C.ar  449  PHE449     -0.0003
    222  CZ       -10.1590   23.1890  -56.8550 C.ar  449  PHE449     -0.0000
    223  N         -3.7370   24.6450  -59.7290 N.am  450  SER450     -0.1950
    224  CA        -2.6130   24.4330  -60.6400 C.3   450  SER450      0.1924
    225  C         -2.8530   23.2000  -61.4940 C.2   450  SER450      0.2314
    226  O         -2.9200   22.0890  -60.9690 O.2   450  SER450     -0.2863
    227  CB        -1.3100   24.2430  -59.8700 C.3   450  SER450      0.2116
    228  OG        -0.3290   23.6640  -60.7070 O.3   450  SER450     -0.2180
    229  N         -0.0880   20.5330  -61.0280 N.3   453  LYS453     -0.1231
    230  CA        -0.2200   19.8540  -59.7370 C.3   453  LYS453      0.1693
    231  C         -1.4090   18.8900  -59.7140 C.2   453  LYS453      0.2591
    232  O         -1.3020   17.7740  -59.2060 O.2   453  LYS453     -0.2718
    233  CB        -0.3570   20.8730  -58.6040 C.3   453  LYS453      0.0285
    234  CG        -0.3910   20.2700  -57.2070 C.3   453  LYS453      0.0035
    235  CD        -0.5330   21.3560  -56.1500 C.3   453  LYS453      0.0206
    236  CE        -0.7140   20.7720  -54.7620 C.3   453  LYS453      0.1093
    237  NZ        -1.0540   21.8220  -53.7400 N.3   453  LYS453     -0.1314
    238  N         -2.5400   19.3180  -60.2650 N.am  454  GLN454     -0.1979
    239  CA        -3.7370   18.4790  -60.2900 C.3   454  GLN454      0.1601
    240  C         -3.5110   17.2130  -61.1170 C.2   454  GLN454      0.2287
    241  O         -3.8930   16.1240  -60.6970 O.2   454  GLN454     -0.2864
    242  CB        -4.9390   19.2680  -60.8210 C.3   454  GLN454      0.0394
    243  CG        -5.3770   20.4130  -59.9110 C.3   454  GLN454      0.0908
    244  CD        -5.7250   19.9340  -58.5140 C.2   454  GLN454      0.2608
    245  OE1       -6.5890   19.0820  -58.3410 O.2   454  GLN454     -0.2717
    246  NE2       -5.0330   20.4650  -57.5150 N.am  454  GLN454     -0.0878
    247  N         -3.7770   13.7170  -59.1200 N.3   458  TYR458     -0.1241
    248  CA        -5.0320   12.9930  -59.3720 C.3   458  TYR458      0.1605
    249  C         -5.0880   12.2030  -60.6810 C.2   458  TYR458      0.2264
    250  O         -6.0720   11.5090  -60.9380 O.2   458  TYR458     -0.2867
    251  CB        -6.2140   13.9580  -59.2500 C.3   458  TYR458      0.0534
    252  CG        -6.2510   14.5860  -57.8790 C.ar  458  TYR458     -0.0201
    253  CD1       -6.6060   13.8350  -56.7660 C.ar  458  TYR458     -0.0009
    254  CD2       -5.8660   15.9120  -57.6850 C.ar  458  TYR458     -0.0009
    255  CE1       -6.6080   14.3850  -55.5040 C.ar  458  TYR458      0.0417
    256  CE2       -5.8640   16.4760  -56.4200 C.ar  458  TYR458      0.0417
    257  CZ        -6.2360   15.7060  -55.3330 C.ar  458  TYR458      0.1957
    258  OH        -6.2430   16.2580  -54.0730 O.3   458  TYR458     -0.2866
    259  N         -0.4310   30.2430  -63.1440 N.3   497  HIS497     -0.1226
    260  CA         0.5730   29.7890  -62.1720 C.3   497  HIS497      0.1752
    261  C          0.9810   28.3360  -62.4020 C.2   497  HIS497      0.2596
    262  O          0.3560   27.6180  -63.1850 O.2   497  HIS497     -0.2718
    263  CB         0.0510   29.9370  -60.7430 C.3   497  HIS497      0.0759
    264  CG        -0.5170   31.2870  -60.4400 C.ar  497  HIS497      0.0818
    265  ND1        0.2680   32.4140  -60.3140 N.ar  497  HIS497     -0.2268
    266  CD2       -1.7930   31.6900  -60.2310 C.ar  497  HIS497      0.1154
    267  CE1       -0.5020   33.4550  -60.0480 C.ar  497  HIS497      0.1986
    268  NE2       -1.7560   33.0420  -59.9910 N.ar  497  HIS497     -0.2212
    269  N          2.0300   27.9140  -61.6990 N.am  498  GLY498     -0.1957
    270  CA         2.5670   26.5610  -61.8170 C.3   498  GLY498      0.1869
    271  C          3.3080   26.3420  -63.1210 C.2   498  GLY498      0.2309
    272  O          3.1910   25.2830  -63.7270 O.2   498  GLY498     -0.2863
@<TRIPOS>BOND
     1   272   271    2
     2   211   210    1
     3   262   261    2
     4   259   260    1
     5   271   270    1
     6   261   260    1
     7   261   269   am
     8   260   263    1
     9   210   208   ar
    10   210   209   ar
    11   208   206   ar
    12   270   269    1
    13   225   226    2
    14   225   224    1
    15   215   214    2
    16   240   241    2
    17   240   239    1
    18   229   230    1
    19   209   207   ar
    20   250   249    2
    21   127   126    2
    22   206   205   ar
    23   242   239    1
    24   242   243    1
    25   126   125    1
    26   263   264    1
    27   228   227    1
    28   249   248    1
    29   224   227    1
    30   224   223    1
    31   124   125    1
    32   116   115    2
    33   115   114    1
    34   264   265   ar
    35   264   266   ar
    36   265   267   ar
    37   239   238    1
    38   238   231   am
    39   266   268   ar
    40   214   223   am
    41   214   213    1
    42   267   268   ar
    43   125   128    1
    44   243   244    1
    45   105   106    1
    46   207   205   ar
    47   230   231    1
    48   230   233    1
    49   231   232    2
    50   216   213    1
    51   216   217    1
    52   205   204    1
    53   248   251    1
    54   248   247    1
    55   251   252    1
    56   108   107    2
    57   114   117    1
    58   114   113    1
    59   118   117    1
    60   118   119    1
    61   213   212    1
    62   107   113   am
    63   107   106    1
    64   106   109    1
    65   212   202   am
    66   217   218   ar
    67   217   219   ar
    68   128   129    1
    69   233   234    1
    70   244   245    2
    71   244   246   am
    72   204   201    1
    73   156   155    2
    74   119   120    1
    75   218   220   ar
    76   155   154    1
    77   219   221   ar
    78   201   202    1
    79   201   200    1
    80   135   136    2
    81   135   134    1
    82    41    40    2
    83   202   203    2
    84   252   254   ar
    85   252   253   ar
    86   254   256   ar
    87   154   153    1
    88   137   134    1
    89   137   138    1
    90   109   110    1
    91   129   130    1
    92   192   191    2
    93   220   222   ar
    94    40    39    1
    95   221   222   ar
    96   234   235    1
    97   134   133    1
    98   120   121    2
    99   153   143   am
   100   200   191   am
   101   112   110   am
   102   253   255   ar
   103   110   111    2
   104   191   190    1
   105   187   186   ar
   106   138   140   am
   107   138   139    2
   108   256   257   ar
   109   130   132   am
   110   130   131    2
   111   235   236    1
   112   141   142    1
   113    39    42    1
   114    39    38    1
   115   188   186   ar
   116   122   121    1
   117    30    29    2
   118   121   123    1
   119   143   144    2
   120   143   142    1
   121   186   185    1
   122   255   257   ar
   123   257   258    1
   124    42    43    1
   125    29    38   am
   126    29    28    1
   127   190   193    1
   128   190   189    1
   129   142   145    1
   130   193   194    1
   131   189   183   am
   132   236   237    1
   133   145   146    1
   134   183   184    2
   135   183   182    1
   136    28    27    1
   137    28    31    1
   138   185   182    1
   139   182   181    1
   140    45    43   am
   141    43    44    2
   142   194   195    1
   143   148   146   ar
   144   148   150   ar
   145   195   196    1
   146    31    32    1
   147   146   147   ar
   148   101   103   ar
   149   101    99   ar
   150   103   104   ar
   151    98    99    1
   152    98    95    1
   153    99   100   ar
   154   104   102   ar
   155   100   102   ar
   156   175   174    2
   157    37    35    1
   158    97    96    2
   159   181   174   am
   160   150   151   ar
   161    96    95    1
   162    35    34    2
   163    35    36    1
   164   174   173    1
   165    32    33    1
   166    34    33    1
   167   147   149   ar
   168    95    94    1
   169   196   197    2
   170    78    77   ar
   171   163   162   ar
   172   151   149   ar
   173   151   152    1
   174   198   197    1
   175   197   199    1
   176    83    82    2
   177   164   162   ar
   178   173   172    1
   179   173   176    1
   180    77    76    1
   181    77    79   ar
   182    75    76    1
   183    75    72    1
   184    82    81    1
   185    74    73    2
   186   162   161    1
   187   176   177    1
   188    84    85    1
   189    84    81    1
   190   177   178    1
   191    90    92   ar
   192    90    87   ar
   193    92    93   ar
   194    73    72    1
   195   160   159    2
   196    85    87   ar
   197    85    86   ar
   198    87    89   ar
   199    72    71    1
   200    81    80    1
   201   157   158    1
   202    93    91   ar
   203   161   158    1
   204    86    88   ar
   205   179   178   ar
   206   178   180   ar
   207    89    91   ar
   208    89    88   ar
   209   168   167    2
   210   159   158    1
   211   159   165   am
   212    52    54   ar
   213    52    51   ar
   214   167   166    1
   215    54    55   ar
   216    71    62   am
   217    49    48    2
   218   165   166    1
   219   165   171    1
   220   166   169    1
   221    63    62    2
   222    48    47    1
   223    62    61    1
   224    51    50    1
   225    51    53   ar
   226    55    57   ar
   227    55    53   ar
   228    69    67   ar
   229    69    70   ar
   230    67    65   ar
   231    50    47    1
   232    14    16   ar
   233    14    13   ar
   234    57    59   ar
   235    16    18   ar
   236    12    13    1
   237    12     9    1
   238    53    56   ar
   239    13    15   ar
   240   171   170    1
   241    47    46    1
   242   169   170    1
   243    70    68   ar
   244    18    19    1
   245    18    17   ar
   246    61    60    1
   247    61    64    1
   248    65    64    1
   249    65    66   ar
   250    15    17   ar
   251     8     9    1
   252     8     3   am
   253    59    58   ar
   254     9    10    1
   255    56    58   ar
   256    68    66   ar
   257     2     1    1
   258     2     3    1
   259     2     5    1
   260     3     4    2
   261    10    20   am
   262    10    11    2
   263     7     5    1
   264     6     5    1
   265    20    21    1
   266    25    24    1
   267    21    24    1
   268    21    22    1
   269    24    26    1
   270    22    23    2
