@<TRIPOS>MOLECULE
tmp/2vtbA02.pdb
 138 135 0 0 0
SMALL
GASTEIGER

@<TRIPOS>ATOM
      1  N        -30.2400   31.0780  -70.5520 N.3    84  HIS84      -0.1226
      2  CA       -30.6580   32.4630  -70.2740 C.3    84  HIS84       0.1752
      3  C        -29.8170   33.5480  -70.9470 C.2    84  HIS84       0.2596
      4  O        -30.3530   34.3740  -71.6830 O.2    84  HIS84      -0.2718
      5  CB       -30.6750   32.6930  -68.7550 C.3    84  HIS84       0.0759
      6  CG       -31.2830   33.9980  -68.3320 C.ar   84  HIS84       0.0818
      7  ND1      -32.5900   34.1070  -67.9040 N.ar   84  HIS84      -0.2268
      8  CD2      -30.7530   35.2400  -68.2360 C.ar   84  HIS84       0.1154
      9  CE1      -32.8440   35.3640  -67.5810 C.ar   84  HIS84       0.1986
     10  NE2      -31.7460   36.0740  -67.7770 N.ar   84  HIS84      -0.2212
     11  N        -28.5130   33.5540  -70.6880 N.am   85  PHE85      -0.1976
     12  CA       -27.6370   34.6310  -71.1640 C.3    85  PHE85       0.1639
     13  C        -26.9830   34.3510  -72.5190 C.2    85  PHE85       0.2290
     14  O        -26.8040   35.2780  -73.3040 O.2    85  PHE85      -0.2864
     15  CB       -26.5530   34.9550  -70.1180 C.3    85  PHE85       0.0560
     16  CG       -27.0930   35.5840  -68.8580 C.ar   85  PHE85      -0.0200
     17  CD1      -27.5630   36.8940  -68.8660 C.ar   85  PHE85      -0.0042
     18  CD2      -27.1380   34.8690  -67.6710 C.ar   85  PHE85      -0.0042
     19  CE1      -28.0740   37.4770  -67.7080 C.ar   85  PHE85      -0.0003
     20  CE2      -27.6530   35.4410  -66.5040 C.ar   85  PHE85      -0.0003
     21  CZ       -28.1180   36.7460  -66.5220 C.ar   85  PHE85      -0.0000
     22  N        -31.2610   24.4730  -73.8670 N.3    90  LYS90      -0.1245
     23  CA       -31.6950   24.4050  -72.4760 C.3    90  LYS90       0.1561
     24  C        -31.4710   23.0030  -71.9020 C.2    90  LYS90       0.2260
     25  O        -30.9960   22.8640  -70.7710 O.2    90  LYS90      -0.2867
     26  CB       -33.1700   24.8150  -72.3570 C.3    90  LYS90       0.0271
     27  CG       -33.7340   24.7810  -70.9340 C.3    90  LYS90       0.0035
     28  CD       -33.0760   25.8170  -70.0190 C.3    90  LYS90       0.0206
     29  CE       -33.8530   25.9830  -68.7000 C.3    90  LYS90       0.1093
     30  NZ       -33.2270   27.0220  -67.8110 N.3    90  LYS90      -0.1314
     31  N        -36.0160   27.7450  -57.2960 N.3   147  CYS147     -0.1221
     32  CA       -35.5010   28.7800  -58.2070 C.3   147  CYS147      0.1808
     33  C        -36.5680   29.4780  -59.0520 C.2   147  CYS147      0.2602
     34  O        -37.6540   28.9450  -59.2730 O.2   147  CYS147     -0.2717
     35  CB       -34.4190   28.2070  -59.1140 C.3   147  CYS147      0.0970
     36  SG       -32.9820   27.6530  -58.1860 S.3   147  CYS147     -0.0800
     37  N        -36.2070   30.6760  -59.5090 N.am  148  SER148     -0.1938
     38  CA       -37.0670   31.6010  -60.2580 C.3   148  SER148      0.2055
     39  C        -37.9960   30.9630  -61.2930 C.2   148  SER148      0.2643
     40  O        -39.2100   31.1670  -61.2540 O.2   148  SER148     -0.2714
     41  CB       -36.1790   32.6440  -60.9560 C.3   148  SER148      0.2130
     42  OG       -36.8760   33.3070  -61.9950 O.3   148  SER148     -0.2179
     43  N        -37.4210   30.2120  -62.2240 N.am  149  GLU149     -0.1963
     44  CA       -38.2060   29.6360  -63.3160 C.3   149  GLU149      0.1733
     45  C        -39.2760   28.6840  -62.7990 C.2   149  GLU149      0.2616
     46  O        -40.4220   28.7280  -63.2480 O.2   149  GLU149     -0.2715
     47  CB       -37.2990   28.9360  -64.3320 C.3   149  GLU149      0.0429
     48  CG       -36.4840   29.9210  -65.1460 C.3   149  GLU149      0.1163
     49  CD       -35.4450   29.2690  -66.0440 C.2   149  GLU149      0.3649
     50  OE1      -35.3560   28.0230  -66.0970 O.co2 149  GLU149     -0.2457
     51  OE2      -34.7040   30.0290  -66.6970 O.co2 149  GLU149     -0.2457
     52  N        -38.8980   27.8540  -61.8310 N.am  150  GLU150     -0.1977
     53  CA       -39.7690   26.8080  -61.3160 C.3   150  GLU150      0.1602
     54  C        -40.8780   27.4020  -60.4620 C.2   150  GLU150      0.2287
     55  O        -42.0230   26.9510  -60.5220 O.2   150  GLU150     -0.2864
     56  CB       -38.9850   25.7910  -60.4810 C.3   150  GLU150      0.0415
     57  CG       -38.1450   24.8060  -61.2780 C.3   150  GLU150      0.1163
     58  CD       -37.0220   25.4660  -62.0450 C.2   150  GLU150      0.3649
     59  OE1      -36.2900   26.2940  -61.4630 O.co2 150  GLU150     -0.2457
     60  OE2      -36.8850   25.1690  -63.2510 O.co2 150  GLU150     -0.2457
     61  N        -32.1530   35.2890  -57.1490 N.3   342  ASN342     -0.1240
     62  CA       -31.5640   35.4400  -58.4850 C.3   342  ASN342      0.1653
     63  C        -30.1170   35.9080  -58.5060 C.2   342  ASN342      0.2266
     64  O        -29.4570   35.7990  -59.5400 O.2   342  ASN342     -0.2867
     65  CB       -32.4380   36.3380  -59.3650 C.3   342  ASN342      0.1155
     66  CG       -33.7820   35.7020  -59.6790 C.2   342  ASN342      0.2627
     67  OD1      -33.9070   34.4680  -59.7070 O.2   342  ASN342     -0.2716
     68  ND2      -34.7910   36.5330  -59.9210 N.am  342  ASN342     -0.0877
     69  N        -27.5080   33.7440  -60.0560 N.3   345  PHE345     -0.1227
     70  CA       -27.3060   33.7060  -61.5050 C.3   345  PHE345      0.1736
     71  C        -26.6390   34.9620  -62.0650 C.2   345  PHE345      0.2595
     72  O        -26.2900   34.9970  -63.2430 O.2   345  PHE345     -0.2718
     73  CB       -28.6490   33.4800  -62.2110 C.3   345  PHE345      0.0547
     74  CG       -29.4480   32.3280  -61.6460 C.ar  345  PHE345     -0.0202
     75  CD1      -28.9690   31.0240  -61.7300 C.ar  345  PHE345     -0.0042
     76  CD2      -30.6760   32.5480  -61.0370 C.ar  345  PHE345     -0.0042
     77  CE1      -29.6940   29.9640  -61.2050 C.ar  345  PHE345     -0.0003
     78  CE2      -31.4140   31.4930  -60.5160 C.ar  345  PHE345     -0.0003
     79  CZ       -30.9200   30.1930  -60.5980 C.ar  345  PHE345     -0.0000
     80  N        -26.4640   35.9930  -61.2350 N.am  346  HIS346     -0.1975
     81  CA       -25.9090   37.2590  -61.7030 C.3   346  HIS346      0.1656
     82  C        -24.3870   37.2140  -61.7110 C.2   346  HIS346      0.2291
     83  O        -23.7770   36.4690  -60.9420 O.2   346  HIS346     -0.2864
     84  CB       -26.4080   38.4220  -60.8400 C.3   346  HIS346      0.0771
     85  CG       -27.8830   38.6620  -60.9470 C.ar  346  HIS346      0.0820
     86  ND1      -28.6150   39.2570  -59.9430 N.ar  346  HIS346     -0.2267
     87  CD2      -28.7640   38.3780  -61.9350 C.ar  346  HIS346      0.1154
     88  CE1      -29.8810   39.3370  -60.3130 C.ar  346  HIS346      0.1986
     89  NE2      -29.9970   38.8160  -61.5210 N.ar  346  HIS346     -0.2212
     90  N        -23.6030   27.7800  -67.8920 N.3   415  GLU415     -0.1245
     91  CA       -24.6830   27.5020  -68.8530 C.3   415  GLU415      0.1567
     92  C        -24.3660   26.3180  -69.7620 C.2   415  GLU415      0.2260
     93  O        -25.2720   25.5960  -70.1700 O.2   415  GLU415     -0.2867
     94  CB       -25.0360   28.7400  -69.6900 C.3   415  GLU415      0.0388
     95  CG       -25.8670   29.7790  -68.9090 C.3   415  GLU415      0.1160
     96  CD       -26.5000   30.8680  -69.7680 C.2   415  GLU415      0.3649
     97  OE1      -26.4080   30.8390  -71.0300 O.co2 415  GLU415     -0.2457
     98  OE2      -27.1110   31.7720  -69.1520 O.co2 415  GLU415     -0.2457
     99  N        -25.1110   23.4320  -67.7160 N.3   418  GLU418     -0.1245
    100  CA       -26.5770   23.3080  -67.7430 C.3   418  GLU418      0.1567
    101  C        -27.0680   22.5470  -68.9760 C.2   418  GLU418      0.2260
    102  O        -27.9820   21.7440  -68.8790 O.2   418  GLU418     -0.2867
    103  CB       -27.2680   24.6790  -67.6670 C.3   418  GLU418      0.0388
    104  CG       -28.7950   24.5780  -67.7360 C.3   418  GLU418      0.1160
    105  CD       -29.5350   25.8660  -67.3680 C.2   418  GLU418      0.3649
    106  OE1      -28.8900   26.9210  -67.1350 O.co2 418  GLU418     -0.2457
    107  OE2      -30.7860   25.8100  -67.3470 O.co2 418  GLU418     -0.2457
    108  N        -27.6520   17.9470  -63.9460 N.3   424  TYR424     -0.1241
    109  CA       -27.8920   19.3780  -63.8170 C.3   424  TYR424      0.1605
    110  C        -28.9890   19.7010  -62.7980 C.2   424  TYR424      0.2264
    111  O        -30.0970   19.1780  -62.8740 O.2   424  TYR424     -0.2867
    112  CB       -28.2670   20.0480  -65.1510 C.3   424  TYR424      0.0534
    113  CG       -28.7170   21.4710  -64.9080 C.ar  424  TYR424     -0.0201
    114  CD1      -27.8090   22.4340  -64.4770 C.ar  424  TYR424     -0.0009
    115  CD2      -30.0550   21.8410  -65.0350 C.ar  424  TYR424     -0.0009
    116  CE1      -28.2090   23.7410  -64.2230 C.ar  424  TYR424      0.0417
    117  CE2      -30.4690   23.1470  -64.7740 C.ar  424  TYR424      0.0417
    118  CZ       -29.5400   24.0920  -64.3670 C.ar  424  TYR424      0.1957
    119  OH       -29.9200   25.3910  -64.0990 O.3   424  TYR424     -0.2866
    120  N        -30.0930   23.4970  -60.7680 N.3   426  PRO426     -0.2116
    121  CA       -29.6940   24.9120  -60.7110 C.3   426  PRO426      0.1372
    122  C        -28.9720   25.2850  -59.4130 C.2   426  PRO426      0.2244
    123  O        -28.0200   26.0590  -59.4500 O.2   426  PRO426     -0.2868
    124  CB       -31.0250   25.6690  -60.8160 C.3   426  PRO426      0.0268
    125  CG       -32.0790   24.6760  -60.5130 C.3   426  PRO426      0.0207
    126  CD       -31.5500   23.3500  -60.9450 C.3   426  PRO426      0.0892
    127  N        -25.1270   26.3400  -60.1420 N.3   430  TYR430     -0.1241
    128  CA       -24.8080   27.7520  -59.9340 C.3   430  TYR430      0.1605
    129  C        -24.1860   28.0190  -58.5590 C.2   430  TYR430      0.2264
    130  O        -23.3350   28.9040  -58.4110 O.2   430  TYR430     -0.2867
    131  CB       -26.0270   28.6310  -60.2430 C.3   430  TYR430      0.0534
    132  CG       -26.3230   28.6230  -61.7260 C.ar  430  TYR430     -0.0201
    133  CD1      -25.7200   29.5480  -62.5750 C.ar  430  TYR430     -0.0009
    134  CD2      -27.1450   27.6540  -62.2940 C.ar  430  TYR430     -0.0009
    135  CE1      -25.9600   29.5410  -63.9420 C.ar  430  TYR430      0.0417
    136  CE2      -27.3840   27.6310  -63.6690 C.ar  430  TYR430      0.0417
    137  CZ       -26.7880   28.5820  -64.4850 C.ar  430  TYR430      0.1957
    138  OH       -27.0160   28.5790  -65.8420 O.3   430  TYR430     -0.2866
@<TRIPOS>BOND
     1    22    23    1
     2    14    13    2
     3    13    12    1
     4    23    26    1
     5    23    24    1
     6    26    27    1
     7    24    25    2
     8     4     3    2
     9    12    11    1
    10    12    15    1
    11    97    96   ar
    12     3    11   am
    13     3     2    1
    14    27    28    1
    15     1     2    1
    16     2     5    1
    17    93    92    2
    18    15    16    1
    19    28    29    1
    20    96    98   ar
    21    96    95    1
    22    92    91    1
    23    94    95    1
    24    94    91    1
    25   101   102    2
    26   101   100    1
    27    17    16   ar
    28    17    19   ar
    29    16    18   ar
    30    91    90    1
    31     5     6    1
    32    29    30    1
    33     6     8   ar
    34     6     7   ar
    35     8    10   ar
    36     7     9   ar
    37    10     9   ar
    38   100    99    1
    39   100   103    1
    40   104   103    1
    41   104   105    1
    42    19    21   ar
    43    18    20   ar
    44   105   107   ar
    45   105   106   ar
    46    51    49   ar
    47    21    20   ar
    48    50    49   ar
    49    49    48    1
    50   138   137    1
    51   112   113    1
    52   112   109    1
    53    48    47    1
    54   115   113   ar
    55   115   117   ar
    56   113   114   ar
    57   117   118   ar
    58   137   135   ar
    59   137   136   ar
    60   114   116   ar
    61   118   116   ar
    62   118   119    1
    63    47    44    1
    64   108   109    1
    65   135   133   ar
    66   109   110    1
    67   136   134   ar
    68    44    45    1
    69    44    43    1
    70    60    58   ar
    71    46    45    2
    72    72    71    2
    73   111   110    2
    74    45    52   am
    75   133   132   ar
    76   134   132   ar
    77    43    39   am
    78    73    74    1
    79    73    70    1
    80    71    70    1
    81    71    80   am
    82    58    59   ar
    83    58    57    1
    84    42    41    1
    85    87    89   ar
    86    87    85   ar
    87    52    53    1
    88    75    74   ar
    89    75    77   ar
    90   132   131    1
    91    82    81    1
    92    82    83    2
    93    81    80    1
    94    81    84    1
    95    74    76   ar
    96    89    88   ar
    97    70    69    1
    98    53    56    1
    99    53    54    1
   100    39    40    2
   101    39    38    1
   102    57    56    1
   103    77    79   ar
   104    76    78   ar
   105    41    38    1
   106    85    84    1
   107    85    86   ar
   108   126   120    1
   109   126   125    1
   110   124   121    1
   111   124   125    1
   112   120   121    1
   113   121   122    1
   114    79    78   ar
   115    55    54    2
   116    88    86   ar
   117    38    37    1
   118   131   128    1
   119   127   128    1
   120   128   129    1
   121    68    66   am
   122    67    66    2
   123    66    65    1
   124    64    63    2
   125    37    33   am
   126   123   122    2
   127    65    62    1
   128    34    33    2
   129    35    32    1
   130    35    36    1
   131    33    32    1
   132   129   130    2
   133    63    62    1
   134    62    61    1
   135    32    31    1
