@<TRIPOS>MOLECULE
tmp/2vtbF00.pdb
 230 227 0 0 0
SMALL
GASTEIGER

@<TRIPOS>ATOM
      1  N        -25.0180  -48.4120  -94.9190 N.3   191  VAL191     -0.1231
      2  CA       -24.5890  -49.8000  -95.1240 C.3   191  VAL191      0.1692
      3  C        -23.0750  -49.8970  -94.9420 C.2   191  VAL191      0.2592
      4  O        -22.3180  -49.2130  -95.6310 O.2   191  VAL191     -0.2718
      5  CB       -24.9760  -50.3150  -96.5270 C.3   191  VAL191      0.0266
      6  CG1      -24.4240  -51.7280  -96.7590 C.3   191  VAL191      0.0020
      7  CG2      -26.4890  -50.2960  -96.7060 C.3   191  VAL191      0.0020
      8  N        -22.6390  -50.7510  -94.0140 N.am  192  TYR192     -0.1962
      9  CA       -21.2140  -50.9140  -93.7180 C.3   192  TYR192      0.1771
     10  C        -20.3640  -51.1360  -94.9700 C.2   192  TYR192      0.2620
     11  O        -19.3310  -50.5010  -95.1390 O.2   192  TYR192     -0.2715
     12  CB       -20.9930  -52.0730  -92.7370 C.3   192  TYR192      0.0574
     13  CG       -19.5520  -52.5240  -92.6470 C.ar  192  TYR192     -0.0198
     14  CD1      -18.6440  -51.8880  -91.7960 C.ar  192  TYR192     -0.0009
     15  CD2      -19.0900  -53.5880  -93.4230 C.ar  192  TYR192     -0.0009
     16  CE1      -17.3140  -52.3120  -91.7220 C.ar  192  TYR192      0.0417
     17  CE2      -17.7750  -54.0100  -93.3530 C.ar  192  TYR192      0.0417
     18  CZ       -16.8920  -53.3720  -92.5030 C.ar  192  TYR192      0.1957
     19  OH       -15.5870  -53.8090  -92.4450 O.3   192  TYR192     -0.2866
     20  N        -20.8020  -52.0350  -95.8450 N.am  193  THR193     -0.1951
     21  CA       -20.0470  -52.3760  -97.0550 C.3   193  THR193      0.1897
     22  C        -19.7170  -51.1470  -97.9140 C.2   193  THR193      0.2313
     23  O        -18.6110  -51.0440  -98.4530 O.2   193  THR193     -0.2863
     24  CB       -20.8000  -53.4360  -97.8950 C.3   193  THR193      0.1794
     25  OG1      -20.8690  -54.6600  -97.1520 O.3   193  THR193     -0.2208
     26  CG2      -20.1030  -53.6910  -99.2300 C.3   193  THR193      0.0378
     27  N        -11.9600  -67.2880  -86.1340 N.3   274  ARG274     -0.1231
     28  CA       -12.6020  -66.1680  -85.4210 C.3   274  ARG274      0.1694
     29  C        -14.0370  -66.3970  -84.9160 C.2   274  ARG274      0.2592
     30  O        -14.5160  -65.6280  -84.0790 O.2   274  ARG274     -0.2718
     31  CB       -12.5720  -64.8870  -86.2690 C.3   274  ARG274      0.0321
     32  CG       -13.2730  -64.9940  -87.6170 C.3   274  ARG274      0.0489
     33  CD       -13.3450  -63.6520  -88.2930 C.3   274  ARG274      0.2205
     34  NE       -14.2440  -62.7620  -87.5640 N.pl3 274  ARG274     -0.0865
     35  CZ       -15.5710  -62.7590  -87.6740 C.cat 274  ARG274      0.5346
     36  NH1      -16.1890  -63.5960  -88.4970 N.pl3 274  ARG274      0.1354
     37  NH2      -16.2900  -61.9090  -86.9520 N.pl3 274  ARG274      0.1354
     38  N        -14.7170  -67.4230  -85.4310 N.am  275  ASN275     -0.1974
     39  CA       -16.0530  -67.7880  -84.9520 C.3   275  ASN275      0.1688
     40  C        -16.0350  -68.8420  -83.8390 C.2   275  ASN275      0.2292
     41  O        -17.0750  -69.4160  -83.5110 O.2   275  ASN275     -0.2864
     42  CB       -16.9220  -68.2740  -86.1150 C.3   275  ASN275      0.1181
     43  CG       -17.0450  -67.2420  -87.2220 C.2   275  ASN275      0.2629
     44  OD1      -16.7180  -67.5120  -88.3810 O.2   275  ASN275     -0.2716
     45  ND2      -17.4990  -66.0510  -86.8670 N.am  275  ASN275     -0.0877
     46  N         -8.2450  -59.6970  -92.7560 N.3   319  TRP319     -0.1241
     47  CA        -9.5240  -59.7410  -92.0450 C.3   319  TRP319      0.1605
     48  C         -9.5110  -59.0460  -90.6820 C.2   319  TRP319      0.2264
     49  O        -10.5250  -58.5020  -90.2690 O.2   319  TRP319     -0.2867
     50  CB       -10.0480  -61.1750  -91.8980 C.3   319  TRP319      0.0550
     51  CG       -11.5500  -61.2110  -91.8700 C.ar  319  TRP319      0.0003
     52  CD1      -12.3510  -61.3260  -90.7710 C.ar  319  TRP319      0.0946
     53  CD2      -12.4280  -61.0960  -92.9960 C.ar  319  TRP319      0.0152
     54  NE1      -13.6740  -61.3000  -91.1430 N.ar  319  TRP319     -0.2442
     55  CE2      -13.7490  -61.1570  -92.5050 C.ar  319  TRP319      0.0810
     56  CE3      -12.2240  -60.9430  -94.3740 C.ar  319  TRP319      0.0012
     57  CZ2      -14.8650  -61.0770  -93.3410 C.ar  319  TRP319      0.0191
     58  CZ3      -13.3350  -60.8660  -95.2080 C.ar  319  TRP319      0.0001
     59  CH2      -14.6390  -60.9330  -94.6860 C.ar  319  TRP319      0.0015
     60  N        -10.3260  -55.5580  -91.5470 N.3   322  PHE322     -0.1227
     61  CA       -11.7670  -55.5640  -91.8620 C.3   322  PHE322      0.1736
     62  C        -12.5970  -55.4380  -90.5860 C.2   322  PHE322      0.2595
     63  O        -13.5760  -54.6810  -90.5400 O.2   322  PHE322     -0.2718
     64  CB       -12.1040  -56.8620  -92.6260 C.3   322  PHE322      0.0547
     65  CG       -13.5700  -57.0680  -92.9340 C.ar  322  PHE322     -0.0202
     66  CD1      -14.0730  -56.7890  -94.2030 C.ar  322  PHE322     -0.0042
     67  CD2      -14.4320  -57.6090  -91.9830 C.ar  322  PHE322     -0.0042
     68  CE1      -15.4220  -57.0100  -94.5080 C.ar  322  PHE322     -0.0003
     69  CE2      -15.7790  -57.8300  -92.2760 C.ar  322  PHE322     -0.0003
     70  CZ       -16.2750  -57.5280  -93.5420 C.ar  322  PHE322     -0.0000
     71  N        -12.1960  -56.1650  -89.5420 N.am  323  GLU323     -0.1979
     72  CA       -12.9310  -56.1440  -88.2770 C.3   323  GLU323      0.1602
     73  C        -12.6970  -54.8530  -87.4950 C.2   323  GLU323      0.2287
     74  O        -13.6150  -54.3520  -86.8570 O.2   323  GLU323     -0.2864
     75  CB       -12.5900  -57.3720  -87.4260 C.3   323  GLU323      0.0415
     76  CG       -13.1760  -58.6730  -87.9730 C.3   323  GLU323      0.1163
     77  CD       -14.6940  -58.7250  -87.9210 C.2   323  GLU323      0.3649
     78  OE1      -15.3030  -57.9900  -87.1180 O.co2 323  GLU323     -0.2457
     79  OE2      -15.2830  -59.5140  -88.6830 O.co2 323  GLU323     -0.2457
     80  N        -15.0770  -52.2680  -88.7510 N.3   326  TRP326     -0.1241
     81  CA       -16.3870  -52.3340  -88.0810 C.3   326  TRP326      0.1605
     82  C        -16.3840  -51.4520  -86.8350 C.2   326  TRP326      0.2264
     83  O        -17.3470  -50.7320  -86.5900 O.2   326  TRP326     -0.2867
     84  CB       -16.7690  -53.7760  -87.7010 C.3   326  TRP326      0.0550
     85  CG       -17.5410  -54.4920  -88.7600 C.ar  326  TRP326      0.0003
     86  CD1      -17.0910  -55.4760  -89.5830 C.ar  326  TRP326      0.0946
     87  CD2      -18.9080  -54.2630  -89.1150 C.ar  326  TRP326      0.0152
     88  NE1      -18.1010  -55.8930  -90.4240 N.ar  326  TRP326     -0.2442
     89  CE2      -19.2240  -55.1540  -90.1600 C.ar  326  TRP326      0.0810
     90  CE3      -19.8970  -53.3920  -88.6460 C.ar  326  TRP326      0.0012
     91  CZ2      -20.4870  -55.1970  -90.7520 C.ar  326  TRP326      0.0191
     92  CZ3      -21.1520  -53.4320  -89.2350 C.ar  326  TRP326      0.0001
     93  CH2      -21.4390  -54.3320  -90.2730 C.ar  326  TRP326      0.0015
     94  N        -19.0060  -48.1800  -86.2880 N.3   330  PHE330     -0.1241
     95  CA       -19.9200  -47.9000  -85.1600 C.3   330  PHE330      0.1605
     96  C        -19.5650  -46.6220  -84.3890 C.2   330  PHE330      0.2264
     97  O        -20.4510  -45.9480  -83.8740 O.2   330  PHE330     -0.2867
     98  CB       -20.0150  -49.1000  -84.2040 C.3   330  PHE330      0.0534
     99  CG       -20.8270  -50.2460  -84.7540 C.ar  330  PHE330     -0.0203
    100  CD1      -22.1410  -50.0490  -85.1640 C.ar  330  PHE330     -0.0042
    101  CD2      -20.2810  -51.5130  -84.8640 C.ar  330  PHE330     -0.0042
    102  CE1      -22.8980  -51.0980  -85.6690 C.ar  330  PHE330     -0.0003
    103  CE2      -21.0280  -52.5670  -85.3730 C.ar  330  PHE330     -0.0003
    104  CZ       -22.3430  -52.3570  -85.7740 C.ar  330  PHE330     -0.0000
    105  N        -17.4830  -63.0990  -80.0430 N.3   389  ASN389     -0.1225
    106  CA       -18.3420  -62.4090  -81.0040 C.3   389  ASN389      0.1785
    107  C        -19.4860  -63.3070  -81.4770 C.2   389  ASN389      0.2597
    108  O        -20.6350  -62.8680  -81.5980 O.2   389  ASN389     -0.2718
    109  CB       -17.5150  -61.9480  -82.2010 C.3   389  ASN389      0.1169
    110  CG       -18.3580  -61.3150  -83.2860 C.2   389  ASN389      0.2627
    111  OD1      -18.4960  -61.8720  -84.3740 O.2   389  ASN389     -0.2716
    112  ND2      -18.9270  -60.1450  -82.9960 N.am  389  ASN389     -0.0877
    113  N        -19.1550  -64.5650  -81.7470 N.am  390  ARG390     -0.1979
    114  CA       -20.1440  -65.5600  -82.1370 C.3   390  ARG390      0.1597
    115  C        -21.2370  -65.6790  -81.0700 C.2   390  ARG390      0.2287
    116  O        -22.4240  -65.5910  -81.3890 O.2   390  ARG390     -0.2864
    117  CB       -19.4540  -66.9090  -82.3790 C.3   390  ARG390      0.0334
    118  CG       -20.3650  -68.0580  -82.8140 C.3   390  ARG390      0.0492
    119  CD       -21.3400  -67.6920  -83.9360 C.3   390  ARG390      0.2205
    120  NE       -20.6960  -67.1240  -85.1250 N.pl3 390  ARG390     -0.0865
    121  CZ       -21.2920  -66.9820  -86.3110 C.cat 390  ARG390      0.5346
    122  NH1      -22.5470  -67.3750  -86.4970 N.pl3 390  ARG390      0.1354
    123  NH2      -20.6250  -66.4520  -87.3280 N.pl3 390  ARG390      0.1354
    124  N        -23.6790  -62.4790  -80.7470 N.3   393  GLN393     -0.1245
    125  CA       -24.7110  -62.4270  -81.7800 C.3   393  GLN393      0.1566
    126  C        -25.8520  -63.3820  -81.4490 C.2   393  GLN393      0.2260
    127  O        -27.0290  -63.0480  -81.6310 O.2   393  GLN393     -0.2867
    128  CB       -24.1410  -62.8040  -83.1440 C.3   393  GLN393      0.0367
    129  CG       -23.0660  -61.8840  -83.6980 C.3   393  GLN393      0.0905
    130  CD       -22.3740  -62.5160  -84.8900 C.2   393  GLN393      0.2608
    131  OE1      -22.9000  -62.5010  -85.9990 O.2   393  GLN393     -0.2717
    132  NE2      -21.2070  -63.1070  -84.6590 N.am  393  GLN393     -0.0878
    133  N        -24.0290  -52.7220  -82.1690 N.3   429  ASN429     -0.1240
    134  CA       -24.2400  -54.1410  -82.4580 C.3   429  ASN429      0.1653
    135  C        -25.6010  -54.6320  -81.9680 C.2   429  ASN429      0.2266
    136  O        -26.2460  -55.4480  -82.6320 O.2   429  ASN429     -0.2867
    137  CB       -23.1240  -54.9910  -81.8450 C.3   429  ASN429      0.1155
    138  CG       -21.8890  -55.0620  -82.7270 C.2   429  ASN429      0.2627
    139  OD1      -21.8730  -55.7860  -83.7260 O.2   429  ASN429     -0.2716
    140  ND2      -20.8370  -54.3400  -82.3440 N.am  429  ASN429     -0.0877
    141  N        -28.2800  -53.3940  -84.3850 N.3   432  TYR432     -0.1241
    142  CA       -28.1420  -54.2600  -85.5600 C.3   432  TYR432      0.1605
    143  C        -28.7670  -55.6270  -85.3290 C.2   432  TYR432      0.2264
    144  O        -29.6150  -56.0650  -86.0980 O.2   432  TYR432     -0.2867
    145  CB       -26.6650  -54.4600  -85.9160 C.3   432  TYR432      0.0534
    146  CG       -26.2000  -53.5960  -87.0560 C.ar  432  TYR432     -0.0201
    147  CD1      -26.2920  -52.2010  -86.9830 C.ar  432  TYR432     -0.0009
    148  CD2      -25.6800  -54.1650  -88.2170 C.ar  432  TYR432     -0.0009
    149  CE1      -25.8660  -51.3940  -88.0420 C.ar  432  TYR432      0.0417
    150  CE2      -25.2460  -53.3670  -89.2750 C.ar  432  TYR432      0.0417
    151  CZ       -25.3400  -51.9860  -89.1780 C.ar  432  TYR432      0.1957
    152  OH       -24.9180  -51.2030  -90.2260 O.3   432  TYR432     -0.2866
    153  N        -29.5480  -50.2690  -91.3610 N.3   439  ASP439     -0.1239
    154  CA       -29.4590  -51.1800  -92.5090 C.3   439  ASP439      0.1674
    155  C        -30.3380  -52.4250  -92.3570 C.2   439  ASP439      0.2266
    156  O        -29.9190  -53.4050  -91.7350 O.2   439  ASP439     -0.2867
    157  CB       -28.0050  -51.6160  -92.7210 C.3   439  ASP439      0.1410
    158  CG       -27.8220  -52.4920  -93.9610 C.2   439  ASP439      0.3668
    159  OD1      -28.7580  -52.5930  -94.7830 O.co2 439  ASP439     -0.2456
    160  OD2      -26.7310  -53.0800  -94.1120 O.co2 439  ASP439     -0.2456
    161  N        -33.0760  -61.4780  -88.9280 N.3   441  ARG441     -0.1231
    162  CA       -31.6950  -61.9210  -88.7430 C.3   441  ARG441      0.1694
    163  C        -31.6260  -62.9510  -87.6160 C.2   441  ARG441      0.2592
    164  O        -30.9010  -62.7750  -86.6330 O.2   441  ARG441     -0.2718
    165  CB       -30.7990  -60.7350  -88.4510 C.3   441  ARG441      0.0321
    166  CG       -30.5420  -59.9080  -89.6850 C.3   441  ARG441      0.0489
    167  CD       -29.5760  -58.8420  -89.2190 C.3   441  ARG441      0.2205
    168  NE       -29.2410  -57.9280  -90.2940 N.pl3 441  ARG441     -0.0865
    169  CZ       -28.7850  -56.6930  -90.0710 C.cat 441  ARG441      0.5346
    170  NH1      -28.6450  -56.2040  -88.8370 N.pl3 441  ARG441      0.1354
    171  NH2      -28.4710  -55.9640  -91.1460 N.pl3 441  ARG441      0.1354
    172  N        -32.3820  -64.0310  -87.7830 N.am  442  TYR442     -0.1962
    173  CA       -32.5550  -65.0480  -86.7460 C.3   442  TYR442      0.1771
    174  C        -31.3870  -66.0340  -86.7120 C.2   442  TYR442      0.2620
    175  O        -30.9320  -66.5060  -87.7570 O.2   442  TYR442     -0.2715
    176  CB       -33.8700  -65.8080  -86.9720 C.3   442  TYR442      0.0574
    177  CG       -34.2040  -66.8080  -85.8830 C.ar  442  TYR442     -0.0198
    178  CD1      -34.8050  -66.3980  -84.6970 C.ar  442  TYR442     -0.0009
    179  CD2      -33.9180  -68.1610  -86.0390 C.ar  442  TYR442     -0.0009
    180  CE1      -35.1110  -67.3040  -83.6930 C.ar  442  TYR442      0.0417
    181  CE2      -34.2220  -69.0790  -85.0410 C.ar  442  TYR442      0.0417
    182  CZ       -34.8160  -68.6420  -83.8680 C.ar  442  TYR442      0.1957
    183  OH       -35.1270  -69.5400  -82.8710 O.3   442  TYR442     -0.2866
    184  N        -30.9210  -66.3430  -85.5020 N.am  443  PHE443     -0.1960
    185  CA       -29.8840  -67.3540  -85.2880 C.3   443  PHE443      0.1771
    186  C        -30.5110  -68.6590  -84.7830 C.2   443  PHE443      0.2620
    187  O        -31.1730  -68.6780  -83.7430 O.2   443  PHE443     -0.2715
    188  CB       -28.8380  -66.8480  -84.2860 C.3   443  PHE443      0.0574
    189  CG       -27.8140  -65.9190  -84.8880 C.ar  443  PHE443     -0.0200
    190  CD1      -28.1200  -64.5890  -85.1360 C.ar  443  PHE443     -0.0042
    191  CD2      -26.5380  -66.3780  -85.1980 C.ar  443  PHE443     -0.0042
    192  CE1      -27.1720  -63.7300  -85.6930 C.ar  443  PHE443     -0.0003
    193  CE2      -25.5850  -65.5260  -85.7490 C.ar  443  PHE443     -0.0003
    194  CZ       -25.9020  -64.2040  -86.0010 C.ar  443  PHE443     -0.0000
    195  N        -30.3100  -69.7440  -85.5260 N.am  444  SER444     -0.1950
    196  CA       -30.8060  -71.0570  -85.1230 C.3   444  SER444      0.1924
    197  C        -29.8820  -71.6710  -84.0700 C.2   444  SER444      0.2314
    198  O        -28.7270  -71.9780  -84.3580 O.2   444  SER444     -0.2863
    199  CB       -30.9140  -71.9810  -86.3380 C.3   444  SER444      0.2116
    200  OG       -31.3240  -73.2830  -85.9580 O.3   444  SER444     -0.2180
    201  N        -28.4750  -75.2030  -84.9760 N.3   447  LYS447     -0.1231
    202  CA       -27.5220  -75.0750  -86.0820 C.3   447  LYS447      0.1693
    203  C        -26.2090  -74.4320  -85.6280 C.2   447  LYS447      0.2591
    204  O        -25.1300  -74.8850  -86.0100 O.2   447  LYS447     -0.2718
    205  CB       -28.1320  -74.2390  -87.2110 C.3   447  LYS447      0.0285
    206  CG       -27.3500  -74.2670  -88.5210 C.3   447  LYS447      0.0035
    207  CD       -27.5360  -72.9730  -89.3010 C.3   447  LYS447      0.0206
    208  CE       -27.1350  -73.1190  -90.7660 C.3   447  LYS447      0.1093
    209  NZ       -28.1100  -73.9570  -91.5350 N.3   447  LYS447     -0.1314
    210  N        -26.3090  -73.3710  -84.8280 N.am  448  GLN448     -0.1979
    211  CA       -25.1250  -72.6950  -84.2880 C.3   448  GLN448      0.1601
    212  C        -24.3040  -73.6280  -83.4010 C.2   448  GLN448      0.2287
    213  O        -23.0750  -73.6680  -83.4980 O.2   448  GLN448     -0.2864
    214  CB       -25.5270  -71.4460  -83.4960 C.3   448  GLN448      0.0394
    215  CG       -26.1170  -70.3320  -84.3440 C.3   448  GLN448      0.0908
    216  CD       -25.1910  -69.9000  -85.4510 C.2   448  GLN448      0.2608
    217  OE1      -24.0400  -69.5470  -85.2020 O.2   448  GLN448     -0.2717
    218  NE2      -25.6820  -69.9330  -86.6870 N.am  448  GLN448     -0.0878
    219  N        -20.4990  -74.5460  -84.6410 N.3   452  TYR452     -0.1241
    220  CA       -19.4200  -73.8670  -83.9090 C.3   452  TYR452      0.1605
    221  C        -19.0930  -74.4810  -82.5460 C.2   452  TYR452      0.2264
    222  O        -18.1980  -74.0000  -81.8500 O.2   452  TYR452     -0.2867
    223  CB       -19.7460  -72.3810  -83.7670 C.3   452  TYR452      0.0534
    224  CG       -19.9990  -71.7130  -85.1000 C.ar  452  TYR452     -0.0201
    225  CD1      -18.9420  -71.3700  -85.9420 C.ar  452  TYR452     -0.0009
    226  CD2      -21.2950  -71.4470  -85.5320 C.ar  452  TYR452     -0.0009
    227  CE1      -19.1700  -70.7700  -87.1730 C.ar  452  TYR452      0.0417
    228  CE2      -21.5330  -70.8480  -86.7590 C.ar  452  TYR452      0.0417
    229  CZ       -20.4690  -70.5120  -87.5750 C.ar  452  TYR452      0.1957
    230  OH       -20.7120  -69.9140  -88.7920 O.3   452  TYR452     -0.2866
@<TRIPOS>BOND
     1    26    24    1
     2    23    22    2
     3    22    21    1
     4    24    25    1
     5    24    21    1
     6    21    20    1
     7     6     5    1
     8     7     5    1
     9     5     2    1
    10    20    10   am
    11     4     3    2
    12    58    59   ar
    13    58    56   ar
    14    11    10    2
    15     2     3    1
    16     2     1    1
    17    10     9    1
    18     3     8   am
    19   159   158   ar
    20    59    57   ar
    21    68    66   ar
    22    68    70   ar
    23    56    53   ar
    24    66    65   ar
    25   160   158   ar
    26     8     9    1
    27   158   157    1
    28     9    12    1
    29    70    69   ar
    30    15    17   ar
    31    15    13   ar
    32    17    18   ar
    33    57    55   ar
    34    53    55   ar
    35    53    51   ar
    36    65    64    1
    37    65    67   ar
    38    46    47    1
    39    12    13    1
    40   157   154    1
    41    13    14   ar
    42    64    61    1
    43   154   155    1
    44   154   153    1
    45    55    54   ar
    46    18    19    1
    47    18    16   ar
    48   155   156    2
    49    69    67   ar
    50    47    50    1
    51    47    48    1
    52    50    51    1
    53    51    52   ar
    54    61    60    1
    55    61    62    1
    56    14    16   ar
    57   209   208    1
    58   171   169    1
    59    54    52   ar
    60   208   207    1
    61    91    93   ar
    62    91    89   ar
    63    48    49    2
    64    62    63    2
    65    62    71   am
    66    88    89   ar
    67    88    86   ar
    68   168   169    2
    69   168   167    1
    70    93    92   ar
    71   152   151    1
    72    89    87   ar
    73   169   170    1
    74   166   167    1
    75   166   165    1
    76    86    85   ar
    77    71    72    1
    78   207   206    1
    79   150   151   ar
    80   150   148   ar
    81    92    90   ar
    82   151   149   ar
    83    87    85   ar
    84    87    90   ar
    85   161   162    1
    86   230   229    1
    87    85    84    1
    88    80    81    1
    89   162   165    1
    90   162   163    1
    91    79    77   ar
    92   206   205    1
    93    36    35    1
    94    44    43    2
    95    33    32    1
    96    33    34    1
    97    72    73    1
    98    72    75    1
    99   148   146   ar
   100    81    84    1
   101    81    82    1
   102   149   147   ar
   103    76    77    1
   104    76    75    1
   105    77    78   ar
   106   172   163   am
   107   172   173    1
   108   175   174    2
   109    35    34    2
   110    35    37    1
   111    32    31    1
   112   163   164    2
   113   229   227   ar
   114   229   228   ar
   115    73    74    2
   116   123   121    1
   117    43    45   am
   118    43    42    1
   119   205   202    1
   120   227   225   ar
   121   146   147   ar
   122   146   145    1
   123   176   173    1
   124   176   177    1
   125    82    83    2
   126   228   226   ar
   127   173   174    1
   128   174   184   am
   129   218   216   am
   130   122   121    1
   131   199   200    1
   132   199   196    1
   133   121   120    2
   134    94    95    1
   135    31    28    1
   136    27    28    1
   137    42    39    1
   138   144   143    2
   139   202   203    1
   140   202   201    1
   141   179   177   ar
   142   179   181   ar
   143   204   203    2
   144   194   193   ar
   145   194   192   ar
   146   131   130    2
   147   225   224   ar
   148   145   142    1
   149   177   178   ar
   150   104   102   ar
   151   104   103   ar
   152   193   191   ar
   153   192   190   ar
   154   102   100   ar
   155   203   210   am
   156   142   143    1
   157   142   141    1
   158   226   224   ar
   159   195   196    1
   160   195   186   am
   161   184   185    1
   162   216   217    2
   163   216   215    1
   164    38    39    1
   165    38    29   am
   166    28    29    1
   167   103   101   ar
   168   185   186    1
   169   185   188    1
   170   191   189   ar
   171   100    99   ar
   172    95    96    1
   173    95    98    1
   174   190   189   ar
   175   120   119    1
   176   196   197    1
   177   224   223    1
   178   181   182   ar
   179    39    40    1
   180    29    30    2
   181   130   132   am
   182   130   129    1
   183   189   188    1
   184   101    99   ar
   185   210   211    1
   186   186   187    2
   187    99    98    1
   188   178   180   ar
   189   219   220    1
   190    96    97    2
   191   111   110    2
   192   198   197    2
   193   215   214    1
   194   211   214    1
   195   211   212    1
   196   119   118    1
   197   220   223    1
   198   220   221    1
   199   182   180   ar
   200   182   183    1
   201    40    41    2
   202   139   138    2
   203   129   128    1
   204   213   212    2
   205   110   112   am
   206   110   109    1
   207   128   125    1
   208   118   117    1
   209   138   140   am
   210   138   137    1
   211   136   135    2
   212   221   222    2
   213   134   133    1
   214   134   135    1
   215   134   137    1
   216   117   114    1
   217   109   106    1
   218   114   113    1
   219   114   115    1
   220   125   126    1
   221   125   124    1
   222   113   107   am
   223   127   126    2
   224   108   107    2
   225   107   106    1
   226   116   115    2
   227   106   105    1
