@<TRIPOS>MOLECULE
tmp/2vtcB00.pdb
 104 103 0 0 0
SMALL
GASTEIGER

@<TRIPOS>ATOM
      1  N         43.7860   41.5770   24.7880 N.3     5  GLN5       -0.1231
      2  CA        43.7540   40.7400   23.5570 C.3     5  GLN5        0.1698
      3  C         43.8640   41.5320   22.2430 C.2     5  GLN5        0.2592
      4  O         44.2780   41.0060   21.2110 O.2     5  GLN5       -0.2718
      5  CB        42.5240   39.8340   23.5550 C.3     5  GLN5        0.0381
      6  CG        42.5370   38.8600   24.7090 C.3     5  GLN5        0.0905
      7  CD        41.7790   37.5560   24.4310 C.2     5  GLN5        0.2608
      8  OE1       42.2370   36.4620   24.8080 O.2     5  GLN5       -0.2717
      9  NE2       40.6080   37.6700   23.8010 N.am    5  GLN5       -0.0878
     10  N         43.4610   42.8010   22.2860 N.am    6  ASN6       -0.1974
     11  CA        43.5020   43.6950   21.1420 C.3     6  ASN6        0.1688
     12  C         43.2790   45.1340   21.6210 C.2     6  ASN6        0.2292
     13  O         43.0160   45.3640   22.8130 O.2     6  ASN6       -0.2864
     14  CB        42.5060   43.2660   20.0340 C.3     6  ASN6        0.1181
     15  CG        41.0630   43.0160   20.5550 C.2     6  ASN6        0.2629
     16  OD1       40.3790   43.9530   21.0060 O.2     6  ASN6       -0.2716
     17  ND2       40.5980   41.7510   20.4590 N.am    6  ASN6       -0.0877
     18  N         41.3710   48.9420   14.5310 N.3    13  TYR13      -0.1241
     19  CA        41.7310   47.6820   15.2020 C.3    13  TYR13       0.1605
     20  C         43.2050   47.2840   15.0520 C.2    13  TYR13       0.2264
     21  O         43.7520   47.2730   13.9330 O.2    13  TYR13      -0.2867
     22  CB        40.8660   46.5370   14.6740 C.3    13  TYR13       0.0534
     23  CG        41.0820   45.2310   15.3850 C.ar   13  TYR13      -0.0201
     24  CD1       40.3180   44.8950   16.5000 C.ar   13  TYR13      -0.0009
     25  CD2       42.0430   44.3070   14.9320 C.ar   13  TYR13      -0.0009
     26  CE1       40.5040   43.6800   17.1620 C.ar   13  TYR13       0.0417
     27  CE2       42.2330   43.0900   15.5850 C.ar   13  TYR13       0.0417
     28  CZ        41.4610   42.7850   16.6940 C.ar   13  TYR13       0.1957
     29  OH        41.6360   41.5890   17.3530 O.3    13  TYR13      -0.2866
     30  N         45.6560   43.9460   16.4600 N.3    15  GLN15      -0.1245
     31  CA        45.6960   42.6720   17.1450 C.3    15  GLN15       0.1566
     32  C         46.7140   42.6940   18.2830 C.2    15  GLN15       0.2260
     33  O         47.8310   43.1910   18.1150 O.2    15  GLN15      -0.2867
     34  CB        46.0580   41.5410   16.1690 C.3    15  GLN15       0.0367
     35  CG        46.0580   40.1690   16.7940 C.3    15  GLN15       0.0905
     36  CD        44.6920   39.8250   17.3500 C.2    15  GLN15       0.2608
     37  OE1       44.5340   39.5120   18.5460 O.2    15  GLN15      -0.2717
     38  NE2       43.6820   39.9180   16.4930 N.am   15  GLN15      -0.0878
     39  N         41.5630   46.5910   25.0440 N.3    81  GLN81      -0.1231
     40  CA        40.4490   45.6490   25.2460 C.3    81  GLN81       0.1698
     41  C         40.9210   44.3920   25.9700 C.2    81  GLN81       0.2592
     42  O         41.7180   43.5920   25.4220 O.2    81  GLN81      -0.2718
     43  CB        39.7690   45.3210   23.9010 C.3    81  GLN81       0.0381
     44  CG        38.7970   44.1500   23.9330 C.3    81  GLN81       0.0905
     45  CD        37.4640   44.5080   24.5730 C.2    81  GLN81       0.2608
     46  OE1       37.1680   44.1430   25.7330 O.2    81  GLN81      -0.2717
     47  NE2       36.6510   45.2310   23.8240 N.am   81  GLN81      -0.0878
     48  N         40.4140   44.2120   27.1840 N.am   82  TRP82      -0.1962
     49  CA        40.7560   43.0800   28.0380 C.3    82  TRP82       0.1771
     50  C         39.7980   41.9030   27.8020 C.2    82  TRP82       0.2620
     51  O         38.6350   42.1150   27.4130 O.2    82  TRP82      -0.2715
     52  CB        40.6720   43.5210   29.4970 C.3    82  TRP82       0.0590
     53  CG        41.7950   44.4640   29.9010 C.ar   82  TRP82       0.0006
     54  CD1       41.8470   45.8200   29.7160 C.ar   82  TRP82       0.0946
     55  CD2       42.9960   44.0990   30.5770 C.ar   82  TRP82       0.0152
     56  NE1       43.0300   46.3290   30.2290 N.ar   82  TRP82      -0.2442
     57  CE2       43.7430   45.2860   30.7760 C.ar   82  TRP82       0.0810
     58  CE3       43.5020   42.8760   31.0610 C.ar   82  TRP82       0.0012
     59  CZ2       45.0050   45.2910   31.4160 C.ar   82  TRP82       0.0191
     60  CZ3       44.7700   42.8700   31.6920 C.ar   82  TRP82       0.0001
     61  CH2       45.4940   44.0680   31.8690 C.ar   82  TRP82       0.0015
     62  N         40.2550   40.6840   28.0930 N.am   83  GLY83      -0.1940
     63  CA        39.4390   39.4860   27.9080 C.3    83  GLY83       0.1998
     64  C         40.2430   38.2270   28.1840 C.2    83  GLY83       0.2481
     65  O         41.3630   38.3070   28.7210 O.2    83  GLY83      -0.2729
     66  N         39.7090   37.0580   27.7960 N.am   84  PRO84      -0.2715
     67  CA        38.4530   36.8390   27.0560 C.3    84  PRO84       0.1536
     68  C         37.1460   37.0720   27.8530 C.2    84  PRO84       0.2599
     69  O         36.1310   37.4430   27.2590 O.2    84  PRO84      -0.2715
     70  CB        38.5730   35.3710   26.6060 C.3    84  PRO84       0.0310
     71  CG        39.4410   34.7210   27.6590 C.3    84  PRO84       0.0237
     72  CD        40.4310   35.7930   28.0600 C.3    84  PRO84       0.0939
     73  N         37.1790   36.8620   29.1680 N.am   85  GLY85      -0.1941
     74  CA        35.9910   36.9860   30.0100 C.3    85  GLY85       0.2014
     75  C         35.8290   38.3800   30.5940 C.2    85  GLY85       0.2638
     76  O         36.6870   39.2420   30.4060 O.2    85  GLY85      -0.2714
     77  N         34.6980   38.6100   31.2570 N.am   86  VAL86      -0.1977
     78  CA        34.4770   39.8650   31.9780 C.3    86  VAL86       0.1596
     79  C         35.5350   39.9970   33.0750 C.2    86  VAL86       0.2287
     80  O         35.7830   39.0410   33.8080 O.2    86  VAL86      -0.2864
     81  CB        33.0510   39.9180   32.6010 C.3    86  VAL86       0.0276
     82  CG1       32.8530   41.2230   33.4380 C.3    86  VAL86       0.0022
     83  CG2       32.0300   39.8490   31.4970 C.3    86  VAL86       0.0022
     84  N         32.6130   47.4870   29.3070 N.3   139  GLY139     -0.1210
     85  CA        32.8180   46.3620   28.3880 C.3   139  GLY139      0.1956
     86  C         34.2850   45.9910   28.2580 C.2   139  GLY139      0.2612
     87  O         34.7490   45.5870   27.1730 O.2   139  GLY139     -0.2717
     88  N         34.9950   46.1010   29.3800 N.am  140  ASN140     -0.1960
     89  CA        36.3890   45.6330   29.4910 C.3   140  ASN140      0.1819
     90  C         37.3440   46.4880   28.6680 C.2   140  ASN140      0.2621
     91  O         38.4410   46.0360   28.2830 O.2   140  ASN140     -0.2715
     92  CB        36.5110   44.1550   29.0570 C.3   140  ASN140      0.1195
     93  CG        36.3810   43.1640   30.2010 C.2   140  ASN140      0.2630
     94  OD1       35.6820   43.3980   31.2030 O.2   140  ASN140     -0.2716
     95  ND2       37.0330   42.0040   30.0310 N.am  140  ASN140     -0.0877
     96  N         36.9450   47.7280   28.4050 N.am  141  LYS141     -0.1977
     97  CA        37.7300   48.6450   27.5890 C.3   141  LYS141      0.1596
     98  C         38.2450   49.8040   28.4390 C.2   141  LYS141      0.2287
     99  O         37.5200   50.3240   29.3150 O.2   141  LYS141     -0.2864
    100  CB        36.9180   49.1670   26.3990 C.3   141  LYS141      0.0298
    101  CG        36.6390   48.1140   25.3320 C.3   141  LYS141      0.0038
    102  CD        35.7780   48.6950   24.2210 C.3   141  LYS141      0.0206
    103  CE        35.0570   47.6320   23.3910 C.3   141  LYS141      0.1093
    104  NZ        34.1640   46.7440   24.2260 N.3   141  LYS141     -0.1314
@<TRIPOS>BOND
     1    21    20    2
     2    18    19    1
     3    22    19    1
     4    22    23    1
     5    25    23   ar
     6    25    27   ar
     7    20    19    1
     8    23    24   ar
     9    27    28   ar
    10    34    35    1
    11    34    31    1
    12    30    31    1
    13    38    36   am
    14    24    26   ar
    15    28    26   ar
    16    28    29    1
    17    35    36    1
    18    31    32    1
    19    36    37    2
    20    33    32    2
    21    14    15    1
    22    14    11    1
    23    17    15   am
    24    15    16    2
    25    11    12    1
    26    11    10    1
    27     4     3    2
    28    12    13    2
    29     3    10   am
    30     3     2    1
    31   103   102    1
    32   103   104    1
    33     5     2    1
    34     5     6    1
    35     2     1    1
    36     9     7   am
    37    47    45   am
    38    43    44    1
    39    43    40    1
    40    44    45    1
    41   102   101    1
    42     7     6    1
    43     7     8    2
    44    45    46    2
    45    39    40    1
    46    40    41    1
    47   101   100    1
    48    42    41    2
    49    41    48   am
    50   100    97    1
    51    70    67    1
    52    70    71    1
    53    67    66    1
    54    67    68    1
    55    87    86    2
    56    48    49    1
    57    69    68    2
    58    51    50    2
    59    97    96    1
    60    97    98    1
    61    71    72    1
    62    66    72    1
    63    66    64   am
    64    50    49    1
    65    50    62   am
    66    68    73   am
    67    63    62    1
    68    63    64    1
    69    49    52    1
    70    64    65    2
    71    86    85    1
    72    86    88   am
    73    91    90    2
    74    85    84    1
    75    96    90   am
    76    98    99    2
    77    90    89    1
    78    92    89    1
    79    92    93    1
    80    73    74    1
    81    88    89    1
    82    52    53    1
    83    54    53   ar
    84    54    56   ar
    85    53    55   ar
    86    74    75    1
    87    95    93   am
    88    93    94    2
    89    56    57   ar
    90    76    75    2
    91    55    57   ar
    92    55    58   ar
    93    75    77   am
    94    57    59   ar
    95    58    60   ar
    96    77    78    1
    97    59    61   ar
    98    83    81    1
    99    60    61   ar
   100    78    81    1
   101    78    79    1
   102    81    82    1
   103    79    80    2
