@<TRIPOS>MOLECULE
tmp/2vteA00.pdb
 168 161 0 0 0
SMALL
GASTEIGER

@<TRIPOS>ATOM
      1  N         -7.8960   -1.8080   15.9730 N.3    11  ILE11      -0.1231
      2  CA        -8.4320   -1.7180   17.3000 C.3    11  ILE11       0.1692
      3  C         -9.9310   -1.8560   17.2150 C.2    11  ILE11       0.2593
      4  O        -10.5820   -1.0120   16.5880 O.2    11  ILE11      -0.2718
      5  CB        -8.1050   -0.3760   17.9120 C.3    11  ILE11       0.0266
      6  CG1       -6.5810   -0.1340   17.9640 C.3    11  ILE11       0.0019
      7  CG2       -8.6750   -0.3270   19.3050 C.3    11  ILE11       0.0020
      8  CD1       -6.2720    1.1410   18.7750 C.3    11  ILE11       0.0001
      9  N        -10.4660   -2.9140   17.8290 N.am   12  GLY12      -0.1942
     10  CA       -11.8700   -3.1610   17.8840 C.3    12  GLY12       0.2014
     11  C        -12.3210   -4.1820   16.8300 C.2    12  GLY12       0.2638
     12  O        -12.1730   -4.0000   15.6380 O.2    12  GLY12      -0.2714
     13  N        -12.9320   -5.2560   17.2790 N.am   13  LEU13      -0.1977
     14  CA       -13.4940   -6.2060   16.3490 C.3    13  LEU13       0.1596
     15  C        -14.9240   -5.8170   15.9910 C.2    13  LEU13       0.2287
     16  O        -15.2650   -4.6430   15.8150 O.2    13  LEU13      -0.2864
     17  CB       -13.5150   -7.5940   16.9700 C.3    13  LEU13       0.0297
     18  CG       -12.1770   -8.2380   17.2860 C.3    13  LEU13       0.0022
     19  CD1      -12.3580   -9.5400   18.0120 C.3    13  LEU13       0.0001
     20  CD2      -11.3630   -8.4280   16.0620 C.3    13  LEU13       0.0001
     21  N         -8.6340   -5.5110   21.2940 N.3    35  ASP35      -0.1225
     22  CA        -9.9550   -5.0760   21.7850 C.3    35  ASP35       0.1805
     23  C         -9.9150   -4.9790   23.3250 C.2    35  ASP35       0.2598
     24  O         -9.2900   -5.7980   23.9990 O.2    35  ASP35      -0.2718
     25  CB       -11.0650   -6.0250   21.2500 C.3    35  ASP35       0.1424
     26  CG       -12.4930   -5.4370   21.3550 C.2    35  ASP35       0.3668
     27  OD1      -12.9180   -4.9110   22.3780 O.co2  35  ASP35      -0.2456
     28  OD2      -13.1940   -5.4840   20.3600 O.co2  35  ASP35      -0.2456
     29  N        -10.5240   -3.9510   23.9000 N.am   36  THR36      -0.1939
     30  CA       -10.4550   -3.7590   25.3320 C.3    36  THR36       0.2028
     31  C        -11.4120   -4.7570   26.0240 C.2    36  THR36       0.2642
     32  O        -11.3790   -4.9010   27.2410 O.2    36  THR36      -0.2714
     33  CB       -10.8240   -2.3450   25.7410 C.3    36  THR36       0.1808
     34  OG1      -12.1180   -2.0200   25.2170 O.3    36  THR36      -0.2208
     35  CG2       -9.8040   -1.3260   25.2490 C.3    36  THR36       0.0379
     36  N        -12.2230   -5.4710   25.2480 N.am   37  ARG37      -0.1977
     37  CA       -13.1920   -6.4030   25.8070 C.3    37  ARG37       0.1597
     38  C        -12.5410   -7.7870   25.7910 C.2    37  ARG37       0.2287
     39  O        -11.9490   -8.1720   24.7800 O.2    37  ARG37      -0.2864
     40  CB       -14.5180   -6.4040   24.9950 C.3    37  ARG37       0.0334
     41  CG       -15.2980   -5.0400   24.9530 C.3    37  ARG37       0.0492
     42  CD       -16.3420   -5.0240   23.8390 C.3    37  ARG37       0.2205
     43  NE       -15.7730   -5.0810   22.4830 N.pl3  37  ARG37      -0.0865
     44  CZ       -16.4250   -4.7440   21.3500 C.cat  37  ARG37       0.5346
     45  NH1      -17.6750   -4.3330   21.3640 N.pl3  37  ARG37       0.1354
     46  NH2      -15.8430   -4.8630   20.1750 N.pl3  37  ARG37       0.1354
     47  N        -11.5390    1.3030   15.4660 N.3    71  SER71      -0.1203
     48  CA       -13.0220    1.2370   15.4690 C.3    71  SER71       0.2005
     49  C        -13.6180    2.5680   15.9020 C.2    71  SER71       0.2461
     50  O        -13.0060    3.2630   16.6970 O.2    71  SER71      -0.2732
     51  CB       -13.5390    0.2010   16.4470 C.3    71  SER71       0.2103
     52  OG       -14.9810    0.3090   16.5890 O.3    71  SER71      -0.2182
     53  N        -14.7830    2.9610   15.3480 N.am   72  PRO72      -0.2717
     54  CA       -15.3790    4.1620   15.9240 C.3    72  PRO72       0.1536
     55  C        -15.7450    4.0440   17.4380 C.2    72  PRO72       0.2599
     56  O        -15.9890    5.0610   18.0730 O.2    72  PRO72      -0.2715
     57  CB       -16.6470    4.3690   15.0830 C.3    72  PRO72       0.0310
     58  CG       -16.9360    3.0280   14.4140 C.3    72  PRO72       0.0237
     59  CD       -15.5700    2.4240   14.2160 C.3    72  PRO72       0.0939
     60  N        -15.7100    2.8320   18.0090 N.am   73  GLY73      -0.1941
     61  CA       -16.1750    2.6170   19.3690 C.3    73  GLY73       0.2014
     62  C        -15.0890    2.9100   20.3950 C.2    73  GLY73       0.2638
     63  O        -15.4040    2.9920   21.5660 O.2    73  GLY73      -0.2714
     64  N        -13.8190    3.1010   19.9710 N.am   74  ILE74      -0.1977
     65  CA       -12.7580    3.5470   20.8550 C.3    74  ILE74       0.1596
     66  C        -12.4700    5.0290   20.6700 C.2    74  ILE74       0.2287
     67  O        -12.3300    5.5290   19.5420 O.2    74  ILE74      -0.2864
     68  CB       -11.4160    2.7490   20.6700 C.3    74  ILE74       0.0276
     69  CG1      -10.4140    3.1600   21.7640 C.3    74  ILE74       0.0022
     70  CG2      -10.7480    2.9670   19.2710 C.3    74  ILE74       0.0022
     71  CD1       -9.6720    1.9930   22.3870 C.3    74  ILE74       0.0001
     72  N        -22.3350    3.4920    8.7590 N.3   138  ASN138     -0.1240
     73  CA       -22.8200    3.3140   10.1100 C.3   138  ASN138      0.1653
     74  C        -24.1880    2.5760   10.2320 C.2   138  ASN138      0.2266
     75  O        -24.6740    2.3580   11.3430 O.2   138  ASN138     -0.2867
     76  CB       -22.8740    4.6860   10.7760 C.3   138  ASN138      0.1155
     77  CG       -23.0860    4.5860   12.3020 C.2   138  ASN138      0.2627
     78  OD1      -22.3030    3.9020   13.0320 O.2   138  ASN138     -0.2716
     79  ND2      -24.1740    5.2170   12.7880 N.am  138  ASN138     -0.0877
     80  N        -21.1380    8.3680   11.3360 N.3   159  SER159     -0.1217
     81  CA       -21.2670    8.9010   12.7010 C.3   159  SER159      0.1889
     82  C        -20.1760    9.9090   12.9230 C.2   159  SER159      0.2288
     83  O        -19.2290    9.9620   12.1220 O.2   159  SER159     -0.2866
     84  CB       -21.1480    7.8140   13.7260 C.3   159  SER159      0.2089
     85  OG       -19.8660    7.2400   13.6510 O.3   159  SER159     -0.2183
     86  N        -18.0790    9.7610   15.2850 N.3   161  PHE161     -0.1241
     87  CA       -16.9040    8.9750   15.5660 C.3   161  PHE161      0.1605
     88  C        -16.1780    8.5910   14.3010 C.2   161  PHE161      0.2264
     89  O        -14.9340    8.6590   14.2970 O.2   161  PHE161     -0.2867
     90  CB       -17.2140    7.6820   16.4110 C.3   161  PHE161      0.0534
     91  CG       -17.9860    7.9210   17.6900 C.ar  161  PHE161     -0.0203
     92  CD1      -17.8330    9.1080   18.4290 C.ar  161  PHE161     -0.0042
     93  CD2      -18.8770    6.9400   18.1640 C.ar  161  PHE161     -0.0042
     94  CE1      -18.6080    9.3200   19.6120 C.ar  161  PHE161     -0.0003
     95  CE2      -19.6010    7.1320   19.3120 C.ar  161  PHE161     -0.0003
     96  CZ       -19.4870    8.3310   20.0450 C.ar  161  PHE161     -0.0000
     97  N        -25.6790   14.4820   22.1310 N.3   182  ASP182     -0.1225
     98  CA       -25.5620   13.0450   22.0630 C.3   182  ASP182      0.1805
     99  C        -24.0800   12.6740   22.2420 C.2   182  ASP182      0.2597
    100  O        -23.2230   13.5140   22.1120 O.2   182  ASP182     -0.2718
    101  CB       -26.1170   12.5280   20.7730 C.3   182  ASP182      0.1424
    102  CG       -26.3300   11.0780   20.8100 C.2   182  ASP182      0.3668
    103  OD1      -26.1950   10.4400   21.8820 O.co2 182  ASP182     -0.2456
    104  OD2      -26.7030   10.5690   19.7590 O.co2 182  ASP182     -0.2456
    105  N        -23.8220   11.4610   22.6950 N.am  183  HIS183     -0.1975
    106  CA       -22.4480   10.9500   22.8130 C.3   183  HIS183      0.1656
    107  C        -21.5980   11.7750   23.7390 C.2   183  HIS183      0.2291
    108  O        -20.3960   11.8770   23.5020 O.2   183  HIS183     -0.2864
    109  CB       -21.8530   11.0110   21.4100 C.3   183  HIS183      0.0771
    110  CG       -22.6020   10.1430   20.4660 C.ar  183  HIS183      0.0820
    111  ND1      -22.8360    8.8140   20.7560 N.ar  183  HIS183     -0.2267
    112  CD2      -23.2540   10.4120   19.3060 C.ar  183  HIS183      0.1154
    113  CE1      -23.5950    8.3030   19.8020 C.ar  183  HIS183      0.1986
    114  NE2      -23.8250    9.2400   18.8950 N.ar  183  HIS183     -0.2212
    115  N        -32.2630    6.7910   20.4230 N.3   315  THR315     -0.1218
    116  CA       -31.1630    6.5510   21.3330 C.3   315  THR315      0.1862
    117  C        -30.6630    7.8300   21.9260 C.2   315  THR315      0.2287
    118  O        -29.5840    7.8590   22.5500 O.2   315  THR315     -0.2866
    119  CB       -29.9800    5.8130   20.6510 C.3   315  THR315      0.1770
    120  OG1      -29.6770    6.4750   19.4480 O.3   315  THR315     -0.2211
    121  CG2      -30.3950    4.3370   20.3280 C.3   315  THR315      0.0375
    122  N        -25.7440    8.1860   28.3450 N.3   342  LYS342     -0.1245
    123  CA       -24.4880    8.8320   27.9220 C.3   342  LYS342      0.1561
    124  C        -24.2720   10.2670   28.4870 C.2   342  LYS342      0.2260
    125  O        -23.8620   11.1530   27.7390 O.2   342  LYS342     -0.2867
    126  CB       -24.4870    8.8770   26.3590 C.3   342  LYS342      0.0271
    127  CG       -24.3450    7.4670   25.6830 C.3   342  LYS342      0.0035
    128  CD       -24.7350    7.4710   24.2140 C.3   342  LYS342      0.0206
    129  CE       -26.3260    7.5100   24.1310 C.3   342  LYS342      0.1093
    130  NZ       -26.6980    7.7930   22.7110 N.3   342  LYS342     -0.1314
    131  N        -28.9480    4.8140   24.6640 N.3   408  ALA408     -0.1231
    132  CA       -28.3800    3.5900   24.0800 C.3   408  ALA408      0.1694
    133  C        -28.8570    2.3480   24.8680 C.2   408  ALA408      0.2593
    134  O        -29.1700    2.4480   26.0320 O.2   408  ALA408     -0.2718
    135  CB       -26.8570    3.6630   24.1300 C.3   408  ALA408      0.0304
    136  N        -28.8730    1.1860   24.2240 N.am  409  SER409     -0.1938
    137  CA       -29.3490   -0.0230   24.7810 C.3   409  SER409      0.2055
    138  C        -28.2290   -0.8330   25.3420 C.2   409  SER409      0.2642
    139  O        -28.4870   -1.7500   26.0600 O.2   409  SER409     -0.2714
    140  CB       -30.0290   -0.8690   23.7150 C.3   409  SER409      0.2130
    141  OG       -29.0630   -1.0900   22.7240 O.3   409  SER409     -0.2179
    142  N        -26.9850   -0.4680   25.0560 N.am  410  LEU410     -0.1977
    143  CA       -25.7790   -1.2950   25.2520 C.3   410  LEU410      0.1596
    144  C        -25.4290   -1.7280   26.6430 C.2   410  LEU410      0.2287
    145  O        -24.5180   -2.5390   26.8030 O.2   410  LEU410     -0.2864
    146  CB       -24.5630   -0.5840   24.6430 C.3   410  LEU410      0.0297
    147  CG       -24.7860   -0.0470   23.2160 C.3   410  LEU410      0.0022
    148  CD1      -23.5670    0.7990   22.7790 C.3   410  LEU410      0.0001
    149  CD2      -25.0790   -1.1680   22.2390 C.3   410  LEU410      0.0001
    150  N        -27.6530   -4.2510   20.8890 N.3   415  ASN415     -0.1225
    151  CA       -27.8440   -3.0260   20.0840 C.3   415  ASN415      0.1785
    152  C        -29.3160   -2.6620   20.1560 C.2   415  ASN415      0.2597
    153  O        -30.0770   -3.4270   20.6970 O.2   415  ASN415     -0.2718
    154  CB       -27.4030   -3.2250   18.6130 C.3   415  ASN415      0.1169
    155  CG       -28.0080   -4.4760   17.9760 C.2   415  ASN415      0.2627
    156  OD1      -29.2140   -4.7500   18.1220 O.2   415  ASN415     -0.2716
    157  ND2      -27.1640   -5.2670   17.2950 N.am  415  ASN415     -0.0877
    158  N        -29.6980   -1.5170   19.6180 N.am  416  PHE416     -0.1976
    159  CA       -31.0770   -1.0740   19.6700 C.3   416  PHE416      0.1639
    160  C        -32.0520   -1.9650   18.8800 C.2   416  PHE416      0.2290
    161  O        -33.2300   -2.0220   19.1750 O.2   416  PHE416     -0.2864
    162  CB       -31.1850    0.3760   19.2210 C.3   416  PHE416      0.0560
    163  CG       -31.1130    0.5520   17.7410 C.ar  416  PHE416     -0.0200
    164  CD1      -32.2430    0.4630   16.9700 C.ar  416  PHE416     -0.0042
    165  CD2      -29.9140    0.7910   17.1220 C.ar  416  PHE416     -0.0042
    166  CE1      -32.1780    0.6160   15.6300 C.ar  416  PHE416     -0.0003
    167  CE2      -29.8510    0.9360   15.7860 C.ar  416  PHE416     -0.0003
    168  CZ       -30.9880    0.8520   15.0360 C.ar  416  PHE416     -0.0000
@<TRIPOS>BOND
     1    72    73    1
     2    73    74    1
     3    73    76    1
     4    74    75    2
     5    76    77    1
     6    80    81    1
     7    83    82    2
     8    77    79   am
     9    77    78    2
    10    81    82    1
    11    81    84    1
    12    85    84    1
    13    59    58    1
    14    59    53    1
    15    89    88    2
    16    88    87    1
    17    58    57    1
    18   168   166   ar
    19   168   167   ar
    20    57    54    1
    21    86    87    1
    22    53    49   am
    23    53    54    1
    24    47    48    1
    25    48    49    1
    26    48    51    1
    27    87    90    1
    28   166   164   ar
    29    12    11    2
    30   167   165   ar
    31    16    15    2
    32    49    50    2
    33    54    55    1
    34     1     2    1
    35    15    14    1
    36    20    18    1
    37    14    17    1
    38    14    13    1
    39    90    91    1
    40    51    52    1
    41     4     3    2
    42    11    13   am
    43    11    10    1
    44    17    18    1
    45   164   163   ar
    46   165   163   ar
    47     3     2    1
    48     3     9   am
    49    18    19    1
    50   157   155   am
    51     2     5    1
    52    55    60   am
    53    55    56    2
    54    91    93   ar
    55    91    92   ar
    56   163   162    1
    57     9    10    1
    58     5     6    1
    59     5     7    1
    60     6     8    1
    61   155   156    2
    62   155   154    1
    63    60    61    1
    64    93    95   ar
    65    92    94   ar
    66   154   151    1
    67   160   161    2
    68   160   159    1
    69   114   112   ar
    70   114   113   ar
    71   162   159    1
    72    70    68    1
    73   112   110   ar
    74    95    96   ar
    75    61    62    1
    76   120   119    1
    77    67    66    2
    78    94    96   ar
    79   158   159    1
    80   158   152   am
    81   104   102   ar
    82   113   111   ar
    83    64    62   am
    84    64    65    1
    85   151   152    1
    86   151   150    1
    87   152   153    2
    88    46    44    1
    89   121   119    1
    90    28    26   ar
    91    62    63    2
    92   115   116    1
    93   110   111   ar
    94   110   109    1
    95   119   116    1
    96    68    65    1
    97    68    69    1
    98    66    65    1
    99   101   102    1
   100   101    98    1
   101   102   103   ar
   102    25    26    1
   103    25    22    1
   104    21    22    1
   105   116   117    1
   106    44    45    1
   107    44    43    2
   108    26    27   ar
   109   109   106    1
   110    69    71    1
   111    22    23    1
   112   117   118    2
   113    98    97    1
   114    98    99    1
   115   100    99    2
   116   149   147    1
   117    99   105   am
   118    43    42    1
   119   105   106    1
   120   130   129    1
   121   141   140    1
   122   148   147    1
   123   106   107    1
   124   147   146    1
   125    23    29   am
   126    23    24    2
   127   108   107    2
   128   140   137    1
   129    42    41    1
   130    29    30    1
   131   132   135    1
   132   132   131    1
   133   132   133    1
   134   129   128    1
   135   128   127    1
   136   136   137    1
   137   136   133   am
   138   146   143    1
   139    39    38    2
   140   137   138    1
   141   133   134    2
   142    41    40    1
   143    40    37    1
   144   142   143    1
   145   142   138   am
   146    34    33    1
   147    36    37    1
   148    36    31   am
   149    35    33    1
   150   143   144    1
   151    30    33    1
   152    30    31    1
   153   138   139    2
   154   127   126    1
   155    38    37    1
   156    31    32    2
   157   126   123    1
   158   144   145    2
   159   125   124    2
   160   123   122    1
   161   123   124    1
