@<TRIPOS>MOLECULE
tmp/2vtfB01.pdb
 112 109 0 0 0
SMALL
GASTEIGER

@<TRIPOS>ATOM
      1  N         67.9480  -44.9530  -36.3870 N.3    33  VAL33      -0.1231
      2  CA        67.4890  -43.5750  -36.2590 C.3    33  VAL33       0.1678
      3  C         67.2020  -43.3230  -34.7840 C.2    33  VAL33       0.2434
      4  O         66.2050  -43.7900  -34.2380 O.2    33  VAL33      -0.2733
      5  CB        66.1970  -43.2980  -37.0780 C.3    33  VAL33       0.0265
      6  CG1       65.7470  -41.8650  -36.8110 C.3    33  VAL33       0.0020
      7  CG2       66.4160  -43.5730  -38.5750 C.3    33  VAL33       0.0020
      8  N         68.1010  -42.6160  -34.1060 N.am   34  PRO34      -0.2729
      9  CA        67.9440  -42.4220  -32.6750 C.3    34  PRO34       0.1401
     10  C         66.7610  -41.5300  -32.3480 C.2    34  PRO34       0.2269
     11  O         66.3260  -40.7510  -33.1980 O.2    34  PRO34      -0.2865
     12  CB        69.2550  -41.7380  -32.2620 C.3    34  PRO34       0.0296
     13  CG        69.8320  -41.2060  -33.4820 C.3    34  PRO34       0.0237
     14  CD        69.4060  -42.1420  -34.5890 C.3    34  PRO34       0.0939
     15  N         64.9200  -38.5570  -31.4290 N.3    36  GLU36      -0.1231
     16  CA        65.2620  -37.1280  -31.4300 C.3    36  GLU36       0.1684
     17  C         64.8270  -36.4390  -30.1300 C.2    36  GLU36       0.2434
     18  O         63.6600  -36.4790  -29.7790 O.2    36  GLU36      -0.2733
     19  CB        64.6150  -36.4260  -32.6120 C.3    36  GLU36       0.0402
     20  CG        65.1180  -35.0040  -32.7910 C.3    36  GLU36       0.1161
     21  CD        66.5970  -34.9600  -33.1690 C.2    36  GLU36       0.3649
     22  OE1       67.1620  -36.0080  -33.5360 O.co2  36  GLU36      -0.2457
     23  OE2       67.1960  -33.8730  -33.1010 O.co2  36  GLU36      -0.2457
     24  N         65.7610  -35.7780  -29.4180 N.am   37  PRO37      -0.2729
     25  CA        65.3690  -35.1570  -28.1610 C.3    37  PRO37       0.1401
     26  C         64.8570  -33.7400  -28.3720 C.2    37  PRO37       0.2269
     27  O         65.0280  -33.1680  -29.4480 O.2    37  PRO37      -0.2865
     28  CB        66.6850  -35.1190  -27.3660 C.3    37  PRO37       0.0296
     29  CG        67.7290  -34.9050  -28.4250 C.3    37  PRO37       0.0237
     30  CD        67.1950  -35.5960  -29.6980 C.3    37  PRO37       0.0939
     31  N         62.0950  -40.1620  -35.4920 N.3   114  ARG114     -0.1245
     32  CA        62.2970  -38.9220  -36.2460 C.3   114  ARG114      0.1563
     33  C         61.4460  -37.7920  -35.6720 C.2   114  ARG114      0.2260
     34  O         61.7820  -36.6080  -35.8230 O.2   114  ARG114     -0.2867
     35  CB        61.8850  -39.1090  -37.7080 C.3   114  ARG114      0.0307
     36  CG        62.8570  -39.9320  -38.5380 C.3   114  ARG114      0.0489
     37  CD        62.6460  -39.7410  -40.0560 C.3   114  ARG114      0.2205
     38  NE        63.3470  -40.8080  -40.7750 N.pl3 114  ARG114     -0.0865
     39  CZ        64.6600  -40.8760  -40.9710 C.cat 114  ARG114      0.5346
     40  NH1       65.4760  -39.8920  -40.5560 N.pl3 114  ARG114      0.1354
     41  NH2       65.1590  -41.9200  -41.6160 N.pl3 114  ARG114      0.1354
     42  N         59.7520  -31.7940  -34.1680 N.3   349  THR349     -0.1218
     43  CA        61.1960  -32.0240  -34.0930 C.3   349  THR349      0.1862
     44  C         61.9800  -31.2370  -35.1560 C.2   349  THR349      0.2287
     45  O         63.1470  -31.5560  -35.4350 O.2   349  THR349     -0.2866
     46  CB        61.5440  -33.5270  -34.2190 C.3   349  THR349      0.1770
     47  OG1       60.8800  -34.0870  -35.3630 O.3   349  THR349     -0.2211
     48  CG2       61.1540  -34.2890  -32.9450 C.3   349  THR349      0.0375
     49  N         66.5570  -28.7170  -35.4640 N.3   352  SER352     -0.1202
     50  CA        67.9950  -28.7060  -35.7900 C.3   352  SER352      0.2020
     51  C         68.1830  -28.4570  -37.2790 C.2   352  SER352      0.2619
     52  O         67.3330  -28.8190  -38.0850 O.2   352  SER352     -0.2717
     53  CB        68.6890  -30.0160  -35.3660 C.3   352  SER352      0.2103
     54  OG        68.1200  -31.1360  -36.0050 O.3   352  SER352     -0.2182
     55  N         69.2910  -27.8180  -37.6350 N.am  353  VAL353     -0.1966
     56  CA        69.5950  -27.5400  -39.0250 C.3   353  VAL353      0.1712
     57  C         70.6560  -28.5600  -39.4760 C.2   353  VAL353      0.2458
     58  O         71.6180  -28.8150  -38.7370 O.2   353  VAL353     -0.2730
     59  CB        70.0850  -26.0640  -39.1490 C.3   353  VAL353      0.0289
     60  CG1       70.5960  -25.7460  -40.5430 C.3   353  VAL353      0.0023
     61  CG2       68.9600  -25.1140  -38.7760 C.3   353  VAL353      0.0023
     62  N         70.4880  -29.1690  -40.6720 N.am  354  PRO354     -0.2716
     63  CA        69.4360  -28.9060  -41.6580 C.3   354  PRO354      0.1536
     64  C         68.1150  -29.5550  -41.2850 C.2   354  PRO354      0.2599
     65  O         68.0910  -30.6600  -40.7130 O.2   354  PRO354     -0.2715
     66  CB        69.9990  -29.5310  -42.9410 C.3   354  PRO354      0.0310
     67  CG        70.8470  -30.6900  -42.4290 C.3   354  PRO354      0.0237
     68  CD        71.3900  -30.2610  -41.0960 C.3   354  PRO354      0.0939
     69  N         67.0250  -28.8380  -41.5450 N.am  355  PHE355     -0.1960
     70  CA        65.7070  -29.4230  -41.4580 C.3   355  PHE355      0.1771
     71  C         65.2480  -29.6560  -42.8820 C.2   355  PHE355      0.2619
     72  O         65.2110  -28.7220  -43.6750 O.2   355  PHE355     -0.2715
     73  CB        64.7090  -28.4770  -40.7880 C.3   355  PHE355      0.0574
     74  CG        63.3050  -28.9740  -40.8900 C.ar  355  PHE355     -0.0200
     75  CD1       62.9590  -30.1680  -40.2910 C.ar  355  PHE355     -0.0042
     76  CD2       62.3630  -28.3040  -41.6600 C.ar  355  PHE355     -0.0042
     77  CE1       61.6670  -30.6640  -40.4010 C.ar  355  PHE355     -0.0003
     78  CE2       61.0620  -28.8050  -41.7780 C.ar  355  PHE355     -0.0003
     79  CZ        60.7300  -29.9800  -41.1470 C.ar  355  PHE355     -0.0000
     80  N         64.9330  -30.9020  -43.2180 N.am  356  VAL356     -0.1977
     81  CA        64.6460  -31.2520  -44.6040 C.3   356  VAL356      0.1596
     82  C         63.3860  -32.1070  -44.5810 C.2   356  VAL356      0.2287
     83  O         63.2770  -33.0340  -43.7670 O.2   356  VAL356     -0.2864
     84  CB        65.7970  -32.0690  -45.2090 C.3   356  VAL356      0.0276
     85  CG1       65.4620  -32.5510  -46.6320 C.3   356  VAL356      0.0022
     86  CG2       67.0850  -31.2670  -45.2090 C.3   356  VAL356      0.0022
     87  N         59.2340  -35.7550  -41.4060 N.3   387  VAL387     -0.1245
     88  CA        58.5220  -34.9210  -40.4510 C.3   387  VAL387      0.1561
     89  C         57.4720  -34.1230  -41.2380 C.2   387  VAL387      0.2260
     90  O         57.8060  -33.3140  -42.1110 O.2   387  VAL387     -0.2867
     91  CB        59.4930  -34.0030  -39.6820 C.3   387  VAL387      0.0252
     92  CG1       58.7470  -33.0780  -38.7190 C.3   387  VAL387      0.0019
     93  CG2       60.4750  -34.8520  -38.9040 C.3   387  VAL387      0.0019
     94  N         70.9690  -40.1890  -44.7840 N.3   557  HIS557     -0.1241
     95  CA        69.5600  -40.3760  -44.4580 C.3   557  HIS557      0.1621
     96  C         69.0740  -41.7680  -44.8770 C.2   557  HIS557      0.2264
     97  O         68.5120  -42.4960  -44.0690 O.2   557  HIS557     -0.2867
     98  CB        68.7310  -39.2930  -45.1530 C.3   557  HIS557      0.0745
     99  CG        67.2580  -39.5070  -45.0540 C.ar  557  HIS557      0.0817
    100  ND1       66.4960  -38.9790  -44.0320 N.ar  557  HIS557     -0.2268
    101  CD2       66.4030  -40.1670  -45.8610 C.ar  557  HIS557      0.1154
    102  CE1       65.2300  -39.3100  -44.2180 C.ar  557  HIS557      0.1986
    103  NE2       65.1510  -40.0460  -45.3120 N.ar  557  HIS557     -0.2212
    104  N         71.5630  -36.1240  -45.5860 N.3   599  GLU599     -0.1245
    105  CA        70.3410  -35.5890  -44.9930 C.3   599  GLU599      0.1567
    106  C         69.7240  -34.4980  -45.8780 C.2   599  GLU599      0.2260
    107  O         68.5060  -34.3120  -45.8740 O.2   599  GLU599     -0.2867
    108  CB        70.5830  -35.0960  -43.5550 C.3   599  GLU599      0.0388
    109  CG        71.1140  -36.1760  -42.5920 C.3   599  GLU599      0.1160
    110  CD        70.0520  -37.1860  -42.1500 C.2   599  GLU599      0.3649
    111  OE1       68.8470  -36.9000  -42.3180 O.co2 599  GLU599     -0.2457
    112  OE2       70.4310  -38.2630  -41.6250 O.co2 599  GLU599     -0.2457
@<TRIPOS>BOND
     1    85    84    1
     2   106   107    2
     3   106   105    1
     4   101   103   ar
     5   101    99   ar
     6   104   105    1
     7   103   102   ar
     8    84    86    1
     9    84    81    1
    10    98    99    1
    11    98    95    1
    12    99   100   ar
    13   105   108    1
    14    96    95    1
    15    96    97    2
    16    94    95    1
    17    81    82    1
    18    81    80    1
    19    82    83    2
    20   102   100   ar
    21    72    71    2
    22   108   109    1
    23    80    71   am
    24    66    67    1
    25    66    63    1
    26    71    70    1
    27   109   110    1
    28    67    68    1
    29   111   110   ar
    30   110   112   ar
    31    90    89    2
    32    78    76   ar
    33    78    79   ar
    34    76    74   ar
    35    63    64    1
    36    63    62    1
    37    41    39    1
    38    69    70    1
    39    69    64   am
    40    70    73    1
    41    87    88    1
    42    64    65    2
    43    89    88    1
    44    79    77   ar
    45    68    62    1
    46    39    38    2
    47    39    40    1
    48    74    73    1
    49    74    75   ar
    50    38    37    1
    51    62    57   am
    52    60    59    1
    53    88    91    1
    54    77    75   ar
    55    37    36    1
    56    91    93    1
    57    91    92    1
    58    57    56    1
    59    57    58    2
    60    59    56    1
    61    59    61    1
    62    56    55    1
    63     7     5    1
    64    36    35    1
    65    52    51    2
    66    35    32    1
    67    55    51   am
    68    51    50    1
    69     5     6    1
    70     5     2    1
    71     1     2    1
    72     2     3    1
    73    32    33    1
    74    32    31    1
    75    54    53    1
    76    34    33    2
    77    50    49    1
    78    50    53    1
    79    45    44    2
    80    47    46    1
    81    44    43    1
    82     3     4    2
    83     3     8   am
    84    14     8    1
    85    14    13    1
    86    46    43    1
    87    46    48    1
    88    42    43    1
    89     8     9    1
    90    22    21   ar
    91    13    12    1
    92    11    10    2
    93    21    23   ar
    94    21    20    1
    95    20    19    1
    96     9    10    1
    97     9    12    1
    98    19    16    1
    99    16    15    1
   100    16    17    1
   101    17    18    2
   102    17    24   am
   103    30    24    1
   104    30    29    1
   105    27    26    2
   106    24    25    1
   107    29    28    1
   108    26    25    1
   109    25    28    1
