@<TRIPOS>MOLECULE
tmp/2vthA00.pdb
 157 151 0 0 0
SMALL
GASTEIGER

@<TRIPOS>ATOM
      1  N         26.4120   12.2700   68.2410 N.3    10  ILE10      -0.1231
      2  CA        27.5080   11.8460   67.3690 C.3    10  ILE10       0.1692
      3  C         27.2310   12.0530   65.8780 C.2    10  ILE10       0.2593
      4  O         28.0590   11.7150   65.0240 O.2    10  ILE10      -0.2718
      5  CB        27.9580   10.4040   67.6720 C.3    10  ILE10       0.0266
      6  CG1       26.8780    9.3990   67.2920 C.3    10  ILE10       0.0019
      7  CG2       28.2710   10.2440   69.1510 C.3    10  ILE10       0.0020
      8  CD1       27.1480    7.9890   67.8700 C.3    10  ILE10       0.0001
      9  N         26.0730   12.6200   65.5610 N.am   11  GLY11      -0.1942
     10  CA        25.7090   12.8150   64.1690 C.3    11  GLY11       0.2014
     11  C         24.3210   13.3900   63.9710 C.2    11  GLY11       0.2639
     12  O         23.3760   12.9910   64.6470 O.2    11  GLY11      -0.2714
     13  N         24.2230   14.3750   63.0800 N.am   12  GLU12      -0.1963
     14  CA        22.9430   14.8370   62.5560 C.3    12  GLU12       0.1733
     15  C         22.7100   14.0440   61.2850 C.2    12  GLU12       0.2616
     16  O         23.1830   14.4310   60.2090 O.2    12  GLU12      -0.2715
     17  CB        23.0190   16.3220   62.1840 C.3    12  GLU12       0.0429
     18  CG        23.2610   17.2790   63.3400 C.3    12  GLU12       0.1163
     19  CD        21.9920   17.6090   64.0960 C.2    12  GLU12       0.3649
     20  OE1       20.9630   16.9510   63.8350 O.co2  12  GLU12      -0.2457
     21  OE2       22.0240   18.5300   64.9400 O.co2  12  GLU12      -0.2457
     22  N         22.0570   12.8950   61.4150 N.am   13  GLY13      -0.1955
     23  CA        21.7830   12.0570   60.2630 C.3    13  GLY13       0.1869
     24  C         20.9290   12.7640   59.2250 C.2    13  GLY13       0.2309
     25  O         20.3820   13.8480   59.4700 O.2    13  GLY13      -0.2863
     26  N         21.6070   11.3980   65.7830 N.3    18  VAL18      -0.1245
     27  CA        22.2460   10.1550   66.2230 C.3    18  VAL18       0.1561
     28  C         22.9600   10.3850   67.5390 C.2    18  VAL18       0.2260
     29  O         23.7670   11.3150   67.6680 O.2    18  VAL18      -0.2867
     30  CB        23.2370    9.6190   65.1750 C.3    18  VAL18       0.0252
     31  CG1       23.7710    8.2220   65.5900 C.3    18  VAL18       0.0019
     32  CG2       22.6050    9.5760   63.8060 C.3    18  VAL18       0.0019
     33  N         24.7780    3.1810   68.9940 N.3    31  ALA31      -0.1245
     34  CA        24.4310    4.4440   68.3630 C.3    31  ALA31       0.1562
     35  C         22.9190    4.4240   68.2270 C.2    31  ALA31       0.2260
     36  O         22.3450    3.4910   67.6790 O.2    31  ALA31      -0.2867
     37  CB        25.1050    4.5650   66.9830 C.3    31  ALA31       0.0290
     38  N         19.6050    6.0700   66.7640 N.3    33  LYS33      -0.1245
     39  CA        19.0920    7.0100   65.7760 C.3    33  LYS33       0.1561
     40  C         17.5800    7.1940   65.9420 C.2    33  LYS33       0.2260
     41  O         16.8220    6.2320   65.9260 O.2    33  LYS33      -0.2867
     42  CB        19.4260    6.5290   64.3650 C.3    33  LYS33       0.0271
     43  CG        18.9540    7.4330   63.2560 C.3    33  LYS33       0.0035
     44  CD        19.4130    6.9110   61.9050 C.3    33  LYS33       0.0206
     45  CE        19.1420    7.9250   60.7910 C.3    33  LYS33       0.1093
     46  NZ        19.6920    9.2810   61.0910 N.3    33  LYS33      -0.1314
     47  N         27.4260   -2.2250   59.3490 N.3    55  VAL55      -0.1245
     48  CA        27.1130   -1.8500   60.7310 C.3    55  VAL55       0.1561
     49  C         25.8260   -2.5790   61.1760 C.2    55  VAL55       0.2260
     50  O         24.7650   -2.4450   60.5550 O.2    55  VAL55      -0.2867
     51  CB        26.9500   -0.3040   60.9060 C.3    55  VAL55       0.0252
     52  CG1       26.5740    0.0180   62.3660 C.3    55  VAL55       0.0019
     53  CG2       28.2730    0.4170   60.5460 C.3    55  VAL55       0.0019
     54  N         21.9150    0.8850   66.5490 N.3    71  PHE71      -0.1227
     55  CA        23.0300    0.3190   65.7800 C.3    71  PHE71       0.1736
     56  C         24.2090   -0.0300   66.6850 C.2    71  PHE71       0.2595
     57  O         24.4500    0.6260   67.7050 O.2    71  PHE71      -0.2718
     58  CB        23.4960    1.3000   64.6780 C.3    71  PHE71       0.0547
     59  CG        22.5280    1.4170   63.5350 C.ar   71  PHE71      -0.0202
     60  CD1       22.4440    0.3950   62.5820 C.ar   71  PHE71      -0.0042
     61  CD2       21.6660    2.4940   63.4390 C.ar   71  PHE71      -0.0042
     62  CE1       21.5690    0.4580   61.5400 C.ar   71  PHE71      -0.0003
     63  CE2       20.7410    2.5680   62.3920 C.ar   71  PHE71      -0.0003
     64  CZ        20.6790    1.5490   61.4450 C.ar   71  PHE71      -0.0000
     65  N         24.9980   -0.9970   66.2410 N.am   72  GLU72      -0.1965
     66  CA        26.3890   -1.1590   66.7050 C.3    72  GLU72       0.1733
     67  C         27.1160    0.2200   66.7230 C.2    72  GLU72       0.2616
     68  O         27.0250    0.9920   65.7600 O.2    72  GLU72      -0.2715
     69  CB        27.0820   -2.1330   65.7180 C.3    72  GLU72       0.0429
     70  CG        28.5750   -2.3340   65.8850 C.3    72  GLU72       0.1163
     71  CD        29.1950   -3.1380   64.7390 C.2    72  GLU72       0.3649
     72  OE1       30.3730   -3.4800   64.8500 O.co2  72  GLU72      -0.2457
     73  OE2       28.5280   -3.4330   63.7080 O.co2  72  GLU72      -0.2457
     74  N         27.8880    0.4900   67.7750 N.am   73  PHE73      -0.1960
     75  CA        28.6540    1.7300   67.8930 C.3    73  PHE73       0.1771
     76  C         30.0590    1.5110   67.3780 C.2    73  PHE73       0.2619
     77  O         30.7000    0.5480   67.7720 O.2    73  PHE73      -0.2715
     78  CB        28.7560    2.1540   69.3600 C.3    73  PHE73       0.0574
     79  CG        29.5610    3.4200   69.5840 C.ar   73  PHE73      -0.0200
     80  CD1       28.9900    4.6720   69.3500 C.ar   73  PHE73      -0.0042
     81  CD2       30.8770    3.3550   70.0000 C.ar   73  PHE73      -0.0042
     82  CE1       29.7020    5.8370   69.5470 C.ar   73  PHE73      -0.0003
     83  CE2       31.6210    4.5220   70.1660 C.ar   73  PHE73      -0.0003
     84  CZ        31.0280    5.7700   69.9530 C.ar   73  PHE73      -0.0000
     85  N         30.5280    2.4170   66.5170 N.am   74  LEU74      -0.1963
     86  CA        31.9430    2.4980   66.1980 C.3    74  LEU74       0.1728
     87  C         32.4200    3.9230   66.4930 C.2    74  LEU74       0.2616
     88  O         31.6490    4.8740   66.3800 O.2    74  LEU74      -0.2715
     89  CB        32.2230    2.1060   64.7520 C.3    74  LEU74       0.0311
     90  CG        32.0480    0.6420   64.3300 C.3    74  LEU74       0.0022
     91  CD1       30.5820    0.4180   63.9120 C.3    74  LEU74       0.0001
     92  CD2       33.0020    0.2530   63.1650 C.3    74  LEU74       0.0001
     93  N         33.7110    4.0590   66.7830 N.am   75  HIS75      -0.1959
     94  CA        34.2310    5.2850   67.3490 C.3    75  HIS75       0.1787
     95  C         34.6200    6.3240   66.3110 C.2    75  HIS75       0.2620
     96  O         34.7890    7.4840   66.6450 O.2    75  HIS75      -0.2715
     97  CB        35.4450    4.9780   68.2430 C.3    75  HIS75       0.0785
     98  CG        35.0910    4.2580   69.5090 C.ar   75  HIS75       0.0821
     99  ND1       34.9140    2.8870   69.5650 N.ar   75  HIS75      -0.2267
    100  CD2       34.8900    4.7200   70.7670 C.ar   75  HIS75       0.1154
    101  CE1       34.6330    2.5350   70.8100 C.ar   75  HIS75       0.1986
    102  NE2       34.6150    3.6280   71.5600 N.ar   75  HIS75      -0.2212
    103  N         34.7460    5.9350   65.0470 N.am   76  GLN76      -0.1963
    104  CA        35.3360    6.8740   64.0970 C.3    76  GLN76       0.1733
    105  C         34.7520    6.6560   62.7030 C.2    76  GLN76       0.2616
    106  O         34.3700    5.5460   62.3790 O.2    76  GLN76      -0.2715
    107  CB        36.8650    6.6640   64.1280 C.3    76  GLN76       0.0408
    108  CG        37.6350    7.2490   62.9560 C.3    76  GLN76       0.0908
    109  CD        38.1300    8.6460   63.2210 C.2    76  GLN76       0.2608
    110  OE1       39.3320    8.9200   63.1270 O.2    76  GLN76      -0.2717
    111  NE2       37.2060    9.5530   63.5010 N.am   76  GLN76      -0.0878
    112  N         34.5940    7.7290   61.9270 N.am   77  ASP77      -0.1971
    113  CA        34.1890    7.6150   60.5190 C.3    77  ASP77       0.1709
    114  C         35.3030    8.0440   59.5590 C.2    77  ASP77       0.2293
    115  O         36.3360    8.5670   59.9950 O.2    77  ASP77      -0.2864
    116  CB        32.8890    8.3800   60.2240 C.3    77  ASP77       0.1436
    117  CG        33.0610    9.9040   60.3070 C.2    77  ASP77       0.3671
    118  OD1       34.0240   10.4530   59.7350 O.co2  77  ASP77      -0.2456
    119  OD2       32.2100   10.5560   60.9360 O.co2  77  ASP77      -0.2456
    120  N         31.1880    9.9640   55.5870 N.3   122  GLN122     -0.1231
    121  CA        30.5720   10.0830   56.9270 C.3   122  GLN122      0.1698
    122  C         29.8080    8.8120   57.3680 C.2   122  GLN122      0.2592
    123  O         29.5830    8.5750   58.5580 O.2   122  GLN122     -0.2718
    124  CB        29.6260   11.2900   56.9630 C.3   122  GLN122      0.0381
    125  CG        30.3150   12.6480   56.6470 C.3   122  GLN122      0.0905
    126  CD        30.6940   12.8760   55.1570 C.2   122  GLN122      0.2608
    127  OE1       30.2960   12.1460   54.2710 O.2   122  GLN122     -0.2717
    128  NE2       31.4770   13.9120   54.9090 N.am  122  GLN122     -0.0878
    129  N         29.3040    8.0460   56.4180 N.am  123  ASN123     -0.1974
    130  CA        28.6850    6.7840   56.8040 C.3   123  ASN123      0.1688
    131  C         29.5160    5.4890   56.6090 C.2   123  ASN123      0.2292
    132  O         28.9860    4.3910   56.5000 O.2   123  ASN123     -0.2864
    133  CB        27.2130    6.7030   56.3660 C.3   123  ASN123      0.1181
    134  CG        27.0310    6.7520   54.8670 C.2   123  ASN123      0.2629
    135  OD1       27.7940    6.1380   54.1230 O.2   123  ASN123     -0.2716
    136  ND2       25.9370    7.3850   54.4190 N.am  123  ASN123     -0.0877
    137  N         32.3010    3.5570   58.7230 N.3   125  LEU125     -0.1245
    138  CA        32.7610    3.6350   60.0920 C.3   125  LEU125      0.1561
    139  C         33.9070    2.7040   60.2990 C.2   125  LEU125      0.2260
    140  O         33.9220    1.6210   59.7340 O.2   125  LEU125     -0.2867
    141  CB        31.6130    3.2760   61.0610 C.3   125  LEU125      0.0270
    142  CG        30.3490    4.1720   60.9230 C.3   125  LEU125      0.0019
    143  CD1       29.3500    3.8480   62.0750 C.3   125  LEU125      0.0001
    144  CD2       30.7000    5.6780   60.9190 C.3   125  LEU125      0.0001
    145  N         27.3800    2.0620   57.0710 N.3   135  ALA135     -0.1231
    146  CA        26.3070    2.4600   57.9940 C.3   135  ALA135      0.1694
    147  C         25.1140    3.0150   57.1840 C.2   135  ALA135      0.2592
    148  O         25.2960    3.6310   56.1230 O.2   135  ALA135     -0.2718
    149  CB        26.8110    3.5370   58.9440 C.3   135  ALA135      0.0304
    150  N         23.9170    2.8570   57.7230 N.am  136  ASP136     -0.1974
    151  CA        22.6920    3.4510   57.1400 C.3   136  ASP136      0.1709
    152  C         22.3040    2.7670   55.8500 C.2   136  ASP136      0.2293
    153  O         21.5960    3.3360   55.0290 O.2   136  ASP136     -0.2864
    154  CB        22.8330    4.9690   56.9090 C.3   136  ASP136      0.1436
    155  CG        22.8750    5.7480   58.2190 C.2   136  ASP136      0.3671
    156  OD1       22.7470    5.1160   59.2920 O.co2 136  ASP136     -0.2456
    157  OD2       23.1080    6.9790   58.1830 O.co2 136  ASP136     -0.2456
@<TRIPOS>BOND
     1   135   134    2
     2   127   126    2
     3   136   134   am
     4   134   133    1
     5   128   126   am
     6   153   152    2
     7   126   125    1
     8   120   121    1
     9   152   151    1
    10   148   147    2
    11   133   130    1
    12   129   130    1
    13   129   122   am
    14   132   131    2
    15   131   130    1
    16   125   124    1
    17   154   151    1
    18   154   155    1
    19   121   124    1
    20   121   122    1
    21   145   146    1
    22   151   150    1
    23   147   150   am
    24   147   146    1
    25   122   123    2
    26   146   149    1
    27   157   155   ar
    28   155   156   ar
    29   137   138    1
    30    24    25    2
    31    24    23    1
    32    47    48    1
    33   114   115    2
    34   114   113    1
    35   140   139    2
    36   118   117   ar
    37   138   139    1
    38   138   141    1
    39    16    15    2
    40   116   117    1
    41   116   113    1
    42    23    22    1
    43   117   119   ar
    44   113   112    1
    45    53    51    1
    46    50    49    2
    47    48    51    1
    48    48    49    1
    49    45    46    1
    50    45    44    1
    51    51    52    1
    52   144   142    1
    53   142   141    1
    54   142   143    1
    55    15    22   am
    56    15    14    1
    57    64    62   ar
    58    64    63   ar
    59    62    60   ar
    60    44    43    1
    61   112   105   am
    62    17    14    1
    63    17    18    1
    64   106   105    2
    65    63    61   ar
    66    14    13    1
    67    60    59   ar
    68   105   104    1
    69   108   109    1
    70   108   107    1
    71    13    11   am
    72   110   109    2
    73    92    90    1
    74   109   111   am
    75    43    42    1
    76    18    19    1
    77    61    59   ar
    78    59    58    1
    79    73    71   ar
    80    32    30    1
    81    20    19   ar
    82    91    90    1
    83    11    10    1
    84    11    12    2
    85    19    21   ar
    86   104   107    1
    87   104   103    1
    88    10     9    1
    89    90    89    1
    90    42    39    1
    91    58    55    1
    92    71    72   ar
    93    71    70    1
    94    89    86    1
    95     4     3    2
    96   103    95   am
    97    30    31    1
    98    30    27    1
    99     9     3   am
   100    69    70    1
   101    69    66    1
   102    68    67    2
   103    39    40    1
   104    39    38    1
   105    55    54    1
   106    55    56    1
   107    26    27    1
   108     3     2    1
   109    41    40    2
   110    86    87    1
   111    86    85    1
   112    27    28    1
   113    65    56   am
   114    65    66    1
   115    95    96    2
   116    95    94    1
   117    88    87    2
   118    87    93   am
   119    85    76   am
   120    56    57    2
   121    66    67    1
   122    67    74   am
   123    93    94    1
   124    37    34    1
   125     6     5    1
   126     6     8    1
   127    94    97    1
   128     2     5    1
   129     2     1    1
   130    76    77    2
   131    76    75    1
   132    28    29    2
   133     5     7    1
   134    36    35    2
   135    74    75    1
   136    75    78    1
   137    35    34    1
   138    97    98    1
   139    34    33    1
   140    80    82   ar
   141    80    79   ar
   142    78    79    1
   143    98    99   ar
   144    98   100   ar
   145    82    84   ar
   146    99   101   ar
   147    79    81   ar
   148    84    83   ar
   149    81    83   ar
   150   100   102   ar
   151   101   102   ar
