@<TRIPOS>MOLECULE
tmp/2vtiA00.pdb
 141 134 0 0 0
SMALL
GASTEIGER

@<TRIPOS>ATOM
      1  N         25.9890   12.3350   68.0830 N.3    10  ILE10      -0.1245
      2  CA        27.0680   12.1870   67.1200 C.3    10  ILE10       0.1561
      3  C         26.8940   13.1490   65.9370 C.2    10  ILE10       0.2260
      4  O         27.8700   13.6750   65.3940 O.2    10  ILE10      -0.2867
      5  CB        27.1520   10.7350   66.6170 C.3    10  ILE10       0.0252
      6  CG1       27.3430    9.7660   67.7740 C.3    10  ILE10       0.0019
      7  CG2       28.2880   10.5820   65.6160 C.3    10  ILE10       0.0019
      8  CD1       28.7200    9.8670   68.3860 C.3    10  ILE10       0.0001
      9  N         21.7380   10.9240   65.0640 N.3    18  VAL18      -0.1245
     10  CA        22.3400    9.7200   65.6160 C.3    18  VAL18       0.1561
     11  C         22.8950   10.0300   67.0040 C.2    18  VAL18       0.2260
     12  O         23.6190   10.9960   67.2010 O.2    18  VAL18      -0.2867
     13  CB        23.4180    9.1350   64.6900 C.3    18  VAL18       0.0252
     14  CG1       24.1160    7.9460   65.3770 C.3    18  VAL18       0.0019
     15  CG2       22.8220    8.7000   63.3680 C.3    18  VAL18       0.0019
     16  N         24.5920    2.7950   68.6820 N.3    31  ALA31      -0.1245
     17  CA        24.2010    4.0010   67.9780 C.3    31  ALA31       0.1562
     18  C         22.6740    3.9700   67.9690 C.2    31  ALA31       0.2260
     19  O         22.0770    3.0000   67.5280 O.2    31  ALA31      -0.2867
     20  CB        24.7340    3.9350   66.5230 C.3    31  ALA31       0.0290
     21  N         19.4150    5.8930   66.4260 N.3    33  LYS33      -0.1245
     22  CA        18.9610    6.8130   65.3870 C.3    33  LYS33       0.1561
     23  C         17.4410    6.9990   65.5570 C.2    33  LYS33       0.2260
     24  O         16.6920    6.0520   65.4180 O.2    33  LYS33      -0.2867
     25  CB        19.2410    6.1630   64.0080 C.3    33  LYS33       0.0271
     26  CG        19.1350    7.0880   62.7960 C.3    33  LYS33       0.0035
     27  CD        19.6250    6.3720   61.5300 C.3    33  LYS33       0.0206
     28  CE        19.5560    7.2800   60.3030 C.3    33  LYS33       0.1093
     29  NZ        19.9830    8.6800   60.6030 N.3    33  LYS33      -0.1314
     30  N         27.2800   -2.3510   59.0600 N.3    56  VAL56      -0.1245
     31  CA        26.9250   -2.0150   60.4510 C.3    56  VAL56       0.1561
     32  C         25.6510   -2.7790   60.9390 C.2    56  VAL56       0.2260
     33  O         24.5930   -2.7320   60.3130 O.2    56  VAL56      -0.2867
     34  CB        26.8680   -0.4930   60.7010 C.3    56  VAL56       0.0252
     35  CG1       26.6250   -0.2060   62.1780 C.3    56  VAL56       0.0019
     36  CG2       28.2100    0.1240   60.2790 C.3    56  VAL56       0.0019
     37  N         21.6960    0.4210   66.3930 N.3    72  PHE72      -0.1227
     38  CA        22.7440   -0.1990   65.5850 C.3    72  PHE72       0.1736
     39  C         23.9070   -0.5630   66.4810 C.2    72  PHE72       0.2595
     40  O         24.1240    0.0820   67.5050 O.2    72  PHE72      -0.2718
     41  CB        23.2430    0.7860   64.5180 C.3    72  PHE72       0.0547
     42  CG        22.2660    1.0380   63.4160 C.ar   72  PHE72      -0.0202
     43  CD1       22.2520    0.2230   62.2890 C.ar   72  PHE72      -0.0042
     44  CD2       21.4500    2.1600   63.4480 C.ar   72  PHE72      -0.0042
     45  CE1       21.4170    0.5000   61.2380 C.ar   72  PHE72      -0.0003
     46  CE2       20.5750    2.4140   62.4280 C.ar   72  PHE72      -0.0003
     47  CZ        20.5700    1.5900   61.3000 C.ar   72  PHE72      -0.0000
     48  N         24.7790   -1.4310   65.9820 N.am   73  GLU73      -0.1965
     49  CA        26.0950   -1.5120   66.5890 C.3    73  GLU73       0.1733
     50  C         26.8100   -0.1780   66.4180 C.2    73  GLU73       0.2616
     51  O         26.6490    0.5210   65.3950 O.2    73  GLU73      -0.2715
     52  CB        26.9350   -2.6220   65.9800 C.3    73  GLU73       0.0429
     53  CG        27.5400   -2.2520   64.6960 C.3    73  GLU73       0.1163
     54  CD        28.4800   -3.2880   64.1490 C.2    73  GLU73       0.3649
     55  OE1       29.5880   -3.4850   64.6810 O.co2  73  GLU73      -0.2457
     56  OE2       28.1390   -3.8100   63.0960 O.co2  73  GLU73      -0.2457
     57  N         27.6590    0.1390   67.3890 N.am   74  PHE74      -0.1960
     58  CA        28.3090    1.4520   67.4290 C.3    74  PHE74       0.1771
     59  C         29.7550    1.2870   66.9280 C.2    74  PHE74       0.2619
     60  O         30.4050    0.3140   67.2810 O.2    74  PHE74      -0.2715
     61  CB        28.3130    1.9640   68.8650 C.3    74  PHE74       0.0574
     62  CG        29.0850    3.2390   69.0660 C.ar   74  PHE74      -0.0200
     63  CD1       28.5300    4.4760   68.7110 C.ar   74  PHE74      -0.0042
     64  CD2       30.3220    3.2190   69.6840 C.ar   74  PHE74      -0.0042
     65  CE1       29.2380    5.6650   68.8950 C.ar   74  PHE74      -0.0003
     66  CE2       31.0420    4.3820   69.8410 C.ar   74  PHE74      -0.0003
     67  CZ        30.5170    5.6150   69.4470 C.ar   74  PHE74      -0.0000
     68  N         30.1820    2.1530   66.0040 N.am   75  LEU75      -0.1963
     69  CA        31.5950    2.3210   65.6640 C.3    75  LEU75       0.1728
     70  C         32.1010    3.6990   66.0580 C.2    75  LEU75       0.2616
     71  O         31.3320    4.6390   66.1640 O.2    75  LEU75      -0.2715
     72  CB        31.8950    2.0220   64.1900 C.3    75  LEU75       0.0311
     73  CG        31.8250    0.5160   63.8260 C.3    75  LEU75       0.0022
     74  CD1       30.3410    0.0730   63.5530 C.3    75  LEU75       0.0001
     75  CD2       32.7360    0.1010   62.6410 C.3    75  LEU75       0.0001
     76  N         33.3860    3.7790   66.3710 N.am   76  HIS76      -0.1959
     77  CA        33.9710    4.9460   67.0490 C.3    76  HIS76       0.1787
     78  C         34.3910    6.0810   66.1200 C.2    76  HIS76       0.2620
     79  O         34.5580    7.2030   66.5530 O.2    76  HIS76      -0.2715
     80  CB        35.1430    4.5130   67.9270 C.3    76  HIS76       0.0785
     81  CG        34.7160    3.7670   69.1590 C.ar   76  HIS76       0.0821
     82  ND1       34.3820    2.4210   69.1440 N.ar   76  HIS76      -0.2267
     83  CD2       34.5640    4.1790   70.4420 C.ar   76  HIS76       0.1154
     84  CE1       34.0380    2.0410   70.3630 C.ar   76  HIS76       0.1986
     85  NE2       34.1170    3.0900   71.1630 N.ar   76  HIS76      -0.2212
     86  N         34.5070    5.8000   64.8280 N.am   77  GLN77      -0.1963
     87  CA        34.9990    6.8210   63.9170 C.3    77  GLN77       0.1733
     88  C         34.4420    6.6480   62.5240 C.2    77  GLN77       0.2616
     89  O         34.2040    5.5300   62.0950 O.2    77  GLN77      -0.2715
     90  CB        36.5240    6.8260   63.9040 C.3    77  GLN77       0.0408
     91  CG        37.1180    8.0870   63.2190 C.3    77  GLN77       0.0908
     92  CD        38.5430    8.3330   63.6130 C.2    77  GLN77       0.2608
     93  OE1       39.4160    8.3520   62.7570 O.2    77  GLN77      -0.2717
     94  NE2       38.8030    8.5080   64.9290 N.am   77  GLN77      -0.0878
     95  N         34.2380    7.7450   61.7950 N.am   78  ASP78      -0.1971
     96  CA        33.8510    7.6040   60.3790 C.3    78  ASP78       0.1709
     97  C         35.0240    7.9330   59.4660 C.2    78  ASP78       0.2293
     98  O         36.0410    8.4680   59.9250 O.2    78  ASP78      -0.2864
     99  CB        32.5890    8.4000   60.0190 C.3    78  ASP78       0.1436
    100  CG        32.7980    9.9280   60.0300 C.2    78  ASP78       0.3671
    101  OD1       33.8740   10.4100   59.6710 O.co2  78  ASP78      -0.2456
    102  OD2       31.8360   10.6350   60.3330 O.co2  78  ASP78      -0.2456
    103  N         36.3490   11.7360   59.2040 N.3    81  LYS81      -0.1245
    104  CA        37.2480   12.1610   60.2570 C.3    81  LYS81       0.1561
    105  C         38.6240   11.5300   60.0820 C.2    81  LYS81       0.2260
    106  O         39.6690   12.1730   60.3460 O.2    81  LYS81      -0.2867
    107  CB        36.6940   11.7880   61.6370 C.3    81  LYS81       0.0271
    108  CG        37.6870   12.1440   62.8170 C.3    81  LYS81       0.0035
    109  CD        36.9820   11.8700   64.1620 C.3    81  LYS81       0.0206
    110  CE        37.8120   12.1810   65.3910 C.3    81  LYS81       0.1093
    111  NZ        36.9350   11.9770   66.6180 N.3    81  LYS81      -0.1314
    112  N         30.8370    9.8980   55.4760 N.3   123  GLN123     -0.1245
    113  CA        30.1770    9.9600   56.7820 C.3   123  GLN123      0.1566
    114  C         29.3740    8.7030   57.1300 C.2   123  GLN123      0.2260
    115  O         29.0860    8.4490   58.2920 O.2   123  GLN123     -0.2867
    116  CB        29.2470   11.2050   56.8510 C.3   123  GLN123      0.0367
    117  CG        29.9600   12.5830   56.6820 C.3   123  GLN123      0.0905
    118  CD        30.5620   12.8090   55.2650 C.2   123  GLN123      0.2608
    119  OE1       30.0600   12.3060   54.2420 O.2   123  GLN123     -0.2717
    120  NE2       31.6570   13.5600   55.2200 N.am  123  GLN123     -0.0878
    121  N         32.0640    3.5020   58.4300 N.3   126  LEU126     -0.1245
    122  CA        32.5390    3.4950   59.7930 C.3   126  LEU126      0.1561
    123  C         33.6830    2.5180   59.9980 C.2   126  LEU126      0.2260
    124  O         33.7340    1.4350   59.3940 O.2   126  LEU126     -0.2867
    125  CB        31.3790    3.1980   60.7610 C.3   126  LEU126      0.0270
    126  CG        30.1400    4.0870   60.6080 C.3   126  LEU126      0.0019
    127  CD1       28.9610    3.6920   61.5850 C.3   126  LEU126      0.0001
    128  CD2       30.5700    5.5490   60.8320 C.3   126  LEU126      0.0001
    129  N         27.1310    1.9370   56.8040 N.3   136  ALA136     -0.1231
    130  CA        26.0750    2.2950   57.7400 C.3   136  ALA136      0.1694
    131  C         24.8910    2.9010   56.9380 C.2   136  ALA136      0.2592
    132  O         25.1040    3.5280   55.9070 O.2   136  ALA136     -0.2718
    133  CB        26.6110    3.3140   58.7060 C.3   136  ALA136      0.0304
    134  N         23.6600    2.7010   57.3980 N.am  137  ASP137     -0.1974
    135  CA        22.4740    3.2480   56.7030 C.3   137  ASP137      0.1709
    136  C         22.0750    2.5340   55.4200 C.2   137  ASP137      0.2293
    137  O         21.2600    3.0130   54.6520 O.2   137  ASP137     -0.2864
    138  CB        22.5600    4.7680   56.5250 C.3   137  ASP137      0.1436
    139  CG        22.3490    5.5160   57.8450 C.2   137  ASP137      0.3671
    140  OD1       21.9500    4.8710   58.8360 O.co2 137  ASP137     -0.2456
    141  OD2       22.6240    6.7270   57.9020 O.co2 137  ASP137     -0.2456
@<TRIPOS>BOND
     1   119   118    2
     2   137   136    2
     3   120   118   am
     4   118   117    1
     5   136   135    1
     6   112   113    1
     7   132   131    2
     8   138   135    1
     9   138   139    1
    10   117   116    1
    11   135   134    1
    12   113   116    1
    13   113   114    1
    14   129   130    1
    15   131   134   am
    16   131   130    1
    17   114   115    2
    18   130   133    1
    19   139   141   ar
    20   139   140   ar
    21   121   122    1
    22    30    31    1
    23   103   104    1
    24   124   123    2
    25    97    98    2
    26    97    96    1
    27   101   100   ar
    28   122   123    1
    29   122   125    1
    30    99   100    1
    31    99    96    1
    32   100   102   ar
    33   105   104    1
    34   105   106    2
    35   104   107    1
    36    36    34    1
    37    28    29    1
    38    28    27    1
    39    33    32    2
    40    96    95    1
    41    31    34    1
    42    31    32    1
    43   126   125    1
    44   126   128    1
    45   126   127    1
    46    34    35    1
    47    45    47   ar
    48    45    43   ar
    49    47    46   ar
    50    27    26    1
    51   107   108    1
    52    95    88   am
    53    89    88    2
    54    43    42   ar
    55    46    44   ar
    56    88    87    1
    57    75    73    1
    58    93    92    2
    59    26    25    1
    60   108   109    1
    61    56    54   ar
    62    91    92    1
    63    91    90    1
    64    15    13    1
    65    42    44   ar
    66    42    41    1
    67    74    73    1
    68    92    94   am
    69    73    72    1
    70    90    87    1
    71    87    86    1
    72    25    22    1
    73    54    55   ar
    74    54    53    1
    75   109   110    1
    76    72    69    1
    77    41    38    1
    78    13    14    1
    79    13    10    1
    80    53    52    1
    81    86    78   am
    82     9    10    1
    83    22    23    1
    84    22    21    1
    85   110   111    1
    86     4     3    2
    87    51    50    2
    88    24    23    2
    89    38    37    1
    90    38    39    1
    91    10    11    1
    92     7     5    1
    93    69    68    1
    94    69    70    1
    95     3     2    1
    96    52    49    1
    97    48    39   am
    98    48    49    1
    99    68    59   am
   100    70    71    2
   101    70    76   am
   102    78    79    2
   103    78    77    1
   104    76    77    1
   105    50    49    1
   106    50    57   am
   107    39    40    2
   108    20    17    1
   109     5     2    1
   110     5     6    1
   111    59    60    2
   112    59    58    1
   113    11    12    2
   114    77    80    1
   115     2     1    1
   116    57    58    1
   117    58    61    1
   118    19    18    2
   119     6     8    1
   120    80    81    1
   121    18    17    1
   122    17    16    1
   123    63    65   ar
   124    63    62   ar
   125    61    62    1
   126    65    67   ar
   127    62    64   ar
   128    82    81   ar
   129    82    84   ar
   130    81    83   ar
   131    67    66   ar
   132    64    66   ar
   133    84    85   ar
   134    83    85   ar
