@<TRIPOS>MOLECULE
tmp/2vtjA00.pdb
 136 130 0 0 0
SMALL
GASTEIGER

@<TRIPOS>ATOM
      1  N         26.2210   12.1850   68.2180 N.3    10  ILE10      -0.1231
      2  CA        27.4180   11.9050   67.4400 C.3    10  ILE10       0.1692
      3  C         27.1730   12.1320   65.9540 C.2    10  ILE10       0.2592
      4  O         28.0460   11.8820   65.1200 O.2    10  ILE10      -0.2718
      5  CB        27.9490   10.4830   67.7260 C.3    10  ILE10       0.0266
      6  CG1       26.8830    9.4390   67.4060 C.3    10  ILE10       0.0019
      7  CG2       28.3700   10.3430   69.2030 C.3    10  ILE10       0.0020
      8  CD1       27.3970    8.0130   67.5260 C.3    10  ILE10       0.0001
      9  N         25.9540   12.5420   65.6190 N.am   11  GLY11      -0.1957
     10  CA        25.6130   12.9300   64.2650 C.3    11  GLY11       0.1869
     11  C         24.1970   13.4530   64.1310 C.2    11  GLY11       0.2309
     12  O         23.3600   13.2520   65.0130 O.2    11  GLY11      -0.2863
     13  N         21.5060   11.0590   65.7150 N.3    18  VAL18      -0.1245
     14  CA        22.2290    9.8140   66.0140 C.3    18  VAL18       0.1561
     15  C         22.9160    9.9770   67.3530 C.2    18  VAL18       0.2260
     16  O         23.6480   10.9500   67.5710 O.2    18  VAL18      -0.2867
     17  CB        23.2890    9.5220   64.9590 C.3    18  VAL18       0.0252
     18  CG1       23.9440    8.1740   65.2310 C.3    18  VAL18       0.0019
     19  CG2       22.6870    9.5760   63.5580 C.3    18  VAL18       0.0019
     20  N         24.7770    2.6310   68.7790 N.3    31  ALA31      -0.1245
     21  CA        24.3800    3.8410   68.0720 C.3    31  ALA31       0.1562
     22  C         22.8550    3.8520   68.0160 C.2    31  ALA31       0.2260
     23  O         22.2180    2.8570   67.6590 O.2    31  ALA31      -0.2867
     24  CB        24.9470    3.8510   66.6690 C.3    31  ALA31       0.0290
     25  N         27.5310   -2.4050   59.0500 N.3    55  VAL55      -0.1245
     26  CA        27.2170   -2.0820   60.4560 C.3    55  VAL55       0.1561
     27  C         25.9660   -2.8830   60.8390 C.2    55  VAL55       0.2260
     28  O         24.9260   -2.7600   60.1910 O.2    55  VAL55      -0.2867
     29  CB        26.9570   -0.5580   60.6920 C.3    55  VAL55       0.0252
     30  CG1       26.5330   -0.2860   62.1510 C.3    55  VAL55       0.0019
     31  CG2       28.1730    0.3000   60.2990 C.3    55  VAL55       0.0019
     32  N         22.0520    0.3850   66.3140 N.3    71  PHE71      -0.1227
     33  CA        23.1660   -0.1890   65.5610 C.3    71  PHE71       0.1736
     34  C         24.3360   -0.5080   66.4930 C.2    71  PHE71       0.2595
     35  O         24.4550    0.0540   67.5970 O.2    71  PHE71      -0.2718
     36  CB        23.6400    0.7920   64.4680 C.3    71  PHE71       0.0547
     37  CG        22.6660    0.9510   63.3360 C.ar   71  PHE71      -0.0202
     38  CD1       22.6270    0.0320   62.2980 C.ar   71  PHE71      -0.0042
     39  CD2       21.8440    2.0560   63.2690 C.ar   71  PHE71      -0.0042
     40  CE1       21.7000    0.1690   61.2710 C.ar   71  PHE71      -0.0003
     41  CE2       20.9240    2.2080   62.2440 C.ar   71  PHE71      -0.0003
     42  CZ        20.8260    1.2390   61.2590 C.ar   71  PHE71      -0.0000
     43  N         25.0820   -1.5430   66.1070 N.am   72  GLU72      -0.1965
     44  CA        26.4340   -1.7840   66.5930 C.3    72  GLU72       0.1733
     45  C         27.1700   -0.4410   66.5160 C.2    72  GLU72       0.2616
     46  O         26.9470    0.3480   65.6240 O.2    72  GLU72      -0.2715
     47  CB        27.0860   -2.8310   65.6750 C.3    72  GLU72       0.0429
     48  CG        28.5690   -3.0530   65.8130 C.3    72  GLU72       0.1163
     49  CD        29.2100   -3.5450   64.5150 C.2    72  GLU72       0.3649
     50  OE1       30.4450   -3.6750   64.4920 O.co2  72  GLU72      -0.2457
     51  OE2       28.5070   -3.7480   63.4960 O.co2  72  GLU72      -0.2457
     52  N         27.9330   -0.1190   67.5420 N.am   73  PHE73      -0.1960
     53  CA        28.5740    1.1760   67.6020 C.3    73  PHE73       0.1771
     54  C         30.0380    1.0960   67.1350 C.2    73  PHE73       0.2619
     55  O         30.7170    0.1300   67.4500 O.2    73  PHE73      -0.2715
     56  CB        28.4600    1.7310   69.0370 C.3    73  PHE73       0.0574
     57  CG        29.2850    2.9540   69.2700 C.ar   73  PHE73      -0.0200
     58  CD1       28.7540    4.2210   68.9910 C.ar   73  PHE73      -0.0042
     59  CD2       30.6110    2.8430   69.7170 C.ar   73  PHE73      -0.0042
     60  CE1       29.5320    5.3660   69.1290 C.ar   73  PHE73      -0.0003
     61  CE2       31.3940    3.9750   69.8580 C.ar   73  PHE73      -0.0003
     62  CZ        30.8450    5.2540   69.5580 C.ar   73  PHE73      -0.0000
     63  N         30.4770    2.0360   66.2790 N.am   74  LEU74      -0.1963
     64  CA        31.9080    2.1830   65.9950 C.3    74  LEU74       0.1728
     65  C         32.3460    3.5850   66.3010 C.2    74  LEU74       0.2616
     66  O         31.6110    4.5380   66.0000 O.2    74  LEU74      -0.2715
     67  CB        32.2830    1.8130   64.5460 C.3    74  LEU74       0.0311
     68  CG        32.2190    0.3110   64.1380 C.3    74  LEU74       0.0022
     69  CD1       30.7650   -0.1790   63.8470 C.3    74  LEU74       0.0001
     70  CD2       33.1250   -0.0020   62.9660 C.3    74  LEU74       0.0001
     71  N         33.5980    3.7110   66.7510 N.am   75  HIS75      -0.1959
     72  CA        34.1690    4.9660   67.2620 C.3    75  HIS75       0.1787
     73  C         34.5620    6.0030   66.2390 C.2    75  HIS75       0.2620
     74  O         34.6000    7.1790   66.5550 O.2    75  HIS75      -0.2715
     75  CB        35.4110    4.6860   68.1180 C.3    75  HIS75       0.0785
     76  CG        35.1070    4.0190   69.4240 C.ar   75  HIS75       0.0821
     77  ND1       34.8530    2.6650   69.5240 N.ar   75  HIS75      -0.2267
     78  CD2       35.0220    4.5170   70.6800 C.ar   75  HIS75       0.1154
     79  CE1       34.6040    2.3580   70.7880 C.ar   75  HIS75       0.1986
     80  NE2       34.7160    3.4600   71.5100 N.ar   75  HIS75      -0.2212
     81  N         34.9870    5.5800   65.0530 N.am   76  GLN76      -0.1963
     82  CA        35.4100    6.5780   64.0710 C.3    76  GLN76       0.1733
     83  C         34.8140    6.3360   62.6900 C.2    76  GLN76       0.2616
     84  O         34.6130    5.1860   62.2800 O.2    76  GLN76      -0.2715
     85  CB        36.9420    6.6200   64.0210 C.3    76  GLN76       0.0408
     86  CG        37.5480    7.8220   63.2690 C.3    76  GLN76       0.0908
     87  CD        38.9150    8.1850   63.8200 C.2    76  GLN76       0.2608
     88  OE1       39.8680    8.3830   63.0720 O.2    76  GLN76      -0.2717
     89  NE2       39.0230    8.2380   65.1430 N.am   76  GLN76      -0.0878
     90  N         34.4500    7.4180   62.0010 N.am   77  ASP77      -0.1971
     91  CA        34.1620    7.3560   60.5640 C.3    77  ASP77       0.1709
     92  C         35.3510    7.7660   59.6820 C.2    77  ASP77       0.2293
     93  O         36.2470    8.4690   60.1390 O.2    77  ASP77      -0.2864
     94  CB        32.9320    8.1870   60.2200 C.3    77  ASP77       0.1436
     95  CG        33.1690    9.6840   60.3410 C.2    77  ASP77       0.3671
     96  OD1       34.1730   10.2160   59.8060 O.co2  77  ASP77      -0.2456
     97  OD2       32.2580   10.3550   60.8380 O.co2  77  ASP77      -0.2456
     98  N         36.5640   11.4930   59.2250 N.3    80  LYS80      -0.1245
     99  CA        37.3390   11.9280   60.3910 C.3    80  LYS80       0.1561
    100  C         38.7730   11.4120   60.2910 C.2    80  LYS80       0.2260
    101  O         39.7200   12.1590   60.4880 O.2    80  LYS80      -0.2867
    102  CB        36.6590   11.3560   61.6500 C.3    80  LYS80       0.0271
    103  CG        36.6170   12.2960   62.8460 C.3    80  LYS80       0.0035
    104  CD        37.5970   11.8920   63.9270 C.3    80  LYS80       0.0206
    105  CE        37.0760   12.2910   65.2860 C.3    80  LYS80       0.1093
    106  NZ        37.8940   11.7280   66.3870 N.3    80  LYS80      -0.1314
    107  N         31.2500    9.6530   55.6110 N.3   122  GLN122     -0.1245
    108  CA        30.7210    9.6320   56.9670 C.3   122  GLN122      0.1566
    109  C         29.8560    8.4430   57.2810 C.2   122  GLN122      0.2260
    110  O         29.5400    8.2260   58.4230 O.2   122  GLN122     -0.2867
    111  CB        29.9940   10.9120   57.3230 C.3   122  GLN122      0.0367
    112  CG        29.3450   11.6060   56.1700 C.3   122  GLN122      0.0905
    113  CD        30.1410   12.8030   55.7260 C.2   122  GLN122      0.2608
    114  OE1       30.2400   13.7860   56.4630 O.2   122  GLN122     -0.2717
    115  NE2       30.7660   12.7120   54.5430 N.am  122  GLN122     -0.0878
    116  N         32.4140    3.3650   58.4950 N.3   125  LEU125     -0.1245
    117  CA        32.8310    3.2540   59.8970 C.3   125  LEU125      0.1561
    118  C         34.0560    2.3610   60.0870 C.2   125  LEU125      0.2260
    119  O         34.1260    1.2540   59.5490 O.2   125  LEU125     -0.2867
    120  CB        31.6590    2.7570   60.7420 C.3   125  LEU125      0.0270
    121  CG        30.4500    3.6930   60.7600 C.3   125  LEU125      0.0019
    122  CD1       29.4820    3.1950   61.8490 C.3   125  LEU125      0.0001
    123  CD2       30.8260    5.2120   61.0080 C.3   125  LEU125      0.0001
    124  N         27.4550    1.7540   56.9190 N.3   135  ALA135     -0.1231
    125  CA        26.3100    2.1020   57.7940 C.3   135  ALA135      0.1694
    126  C         25.2310    2.8190   56.9890 C.2   135  ALA135      0.2592
    127  O         25.5650    3.4150   55.9630 O.2   135  ALA135     -0.2718
    128  CB        26.7720    3.0350   58.9240 C.3   135  ALA135      0.0304
    129  N         23.9570    2.5740   57.3430 N.am  136  ASP136     -0.1974
    130  CA        22.7450    3.2770   56.7990 C.3   136  ASP136      0.1709
    131  C         22.0880    2.6030   55.6190 C.2   136  ASP136      0.2293
    132  O         21.2850    3.1880   54.8680 O.2   136  ASP136     -0.2864
    133  CB        23.0570    4.6650   56.3020 C.3   136  ASP136      0.1436
    134  CG        23.0680    5.6660   57.3910 C.2   136  ASP136      0.3671
    135  OD1       23.1050    6.8610   57.0830 O.co2 136  ASP136     -0.2456
    136  OD2       22.9720    5.2740   58.5520 O.co2 136  ASP136     -0.2456
@<TRIPOS>BOND
     1   115   113   am
     2   132   131    2
     3   107   108    1
     4   131   130    1
     5   113   112    1
     6   113   114    2
     7   127   126    2
     8   112   111    1
     9   133   130    1
    10   133   134    1
    11   130   129    1
    12   124   125    1
    13   108   109    1
    14   108   111    1
    15   126   129   am
    16   126   125    1
    17   135   134   ar
    18   109   110    2
    19   134   136   ar
    20   125   128    1
    21   116   117    1
    22    25    26    1
    23    98    99    1
    24   119   118    2
    25    92    93    2
    26    92    91    1
    27    96    95   ar
    28   117   118    1
    29   117   120    1
    30    28    27    2
    31    94    95    1
    32    94    91    1
    33   100    99    1
    34   100   101    2
    35    31    29    1
    36    95    97   ar
    37    99   102    1
    38    26    29    1
    39    26    27    1
    40    91    90    1
    41    29    30    1
    42   120   121    1
    43   121   123    1
    44   121   122    1
    45    42    40   ar
    46    42    41   ar
    47    40    38   ar
    48   102   103    1
    49    90    83   am
    50    41    39   ar
    51    84    83    2
    52    38    37   ar
    53    83    82    1
    54   103   104    1
    55    70    68    1
    56    88    87    2
    57    39    37   ar
    58    86    87    1
    59    86    85    1
    60    37    36    1
    61    51    49   ar
    62    19    17    1
    63    87    89   am
    64    69    68    1
    65   104   105    1
    66    85    82    1
    67    82    81    1
    68    11    10    1
    69    11    12    2
    70    68    67    1
    71    10     9    1
    72    36    33    1
    73    50    49   ar
    74    49    48    1
    75    67    64    1
    76    17    18    1
    77    17    14    1
    78    81    73   am
    79     4     3    2
    80   105   106    1
    81    33    32    1
    82    33    34    1
    83     9     3   am
    84    46    45    2
    85    47    48    1
    86    47    44    1
    87    13    14    1
    88     3     2    1
    89    64    63    1
    90    64    65    1
    91    66    65    2
    92    14    15    1
    93    43    34   am
    94    43    44    1
    95    73    74    2
    96    73    72    1
    97    63    54   am
    98    65    71   am
    99    34    35    2
   100    45    44    1
   101    45    52   am
   102    24    21    1
   103    71    72    1
   104    54    55    2
   105    54    53    1
   106    72    75    1
   107    15    16    2
   108     6     8    1
   109     6     5    1
   110     2     5    1
   111     2     1    1
   112    52    53    1
   113    53    56    1
   114    23    22    2
   115     5     7    1
   116    22    21    1
   117    21    20    1
   118    75    76    1
   119    58    60   ar
   120    58    57   ar
   121    56    57    1
   122    60    62   ar
   123    57    59   ar
   124    76    77   ar
   125    76    78   ar
   126    77    79   ar
   127    62    61   ar
   128    59    61   ar
   129    78    80   ar
   130    79    80   ar
