@<TRIPOS>MOLECULE
tmp/2vtlA00.pdb
 124 118 0 0 0
SMALL
GASTEIGER

@<TRIPOS>ATOM
      1  N         26.4220   12.4050   69.0050 N.3    10  ILE10      -0.1245
      2  CA        27.5980   12.1890   68.1910 C.3    10  ILE10       0.1561
      3  C         27.4850   12.9320   66.8960 C.2    10  ILE10       0.2260
      4  O         28.4960   13.3000   66.3020 O.2    10  ILE10      -0.2867
      5  CB        27.9910   10.7010   67.9710 C.3    10  ILE10       0.0252
      6  CG1       26.8030    9.7700   68.0140 C.3    10  ILE10       0.0019
      7  CG2       29.0150   10.2400   69.0040 C.3    10  ILE10       0.0019
      8  CD1       27.2210    8.3180   68.0310 C.3    10  ILE10       0.0001
      9  N         21.8290   11.6280   66.1660 N.3    18  VAL18      -0.1245
     10  CA        22.5040   10.3930   66.5020 C.3    18  VAL18       0.1561
     11  C         23.1290   10.5250   67.8800 C.2    18  VAL18       0.2260
     12  O         23.8670   11.4640   68.1680 O.2    18  VAL18      -0.2867
     13  CB        23.5410   10.0380   65.4390 C.3    18  VAL18       0.0252
     14  CG1       24.2140    8.6890   65.7550 C.3    18  VAL18       0.0019
     15  CG2       22.8800   10.0400   64.0820 C.3    18  VAL18       0.0019
     16  N         24.8790    2.9760   69.1520 N.3    31  ALA31      -0.1245
     17  CA        24.4830    4.2380   68.5230 C.3    31  ALA31       0.1562
     18  C         22.9650    4.2350   68.4410 C.2    31  ALA31       0.2260
     19  O         22.3730    3.2590   67.9650 O.2    31  ALA31      -0.2867
     20  CB        25.1030    4.3540   67.1290 C.3    31  ALA31       0.0290
     21  N         19.6720    6.1630   66.8350 N.3    33  LYS33      -0.1245
     22  CA        19.2640    7.1700   65.8670 C.3    33  LYS33       0.1561
     23  C         17.7790    7.4410   65.9940 C.2    33  LYS33       0.2260
     24  O         16.9550    6.5530   65.8420 O.2    33  LYS33      -0.2867
     25  CB        19.6150    6.7460   64.4380 C.3    33  LYS33       0.0271
     26  CG        21.0430    6.2200   64.3290 C.3    33  LYS33       0.0035
     27  CD        21.6700    6.5490   62.9720 C.3    33  LYS33       0.0206
     28  CE        23.1490    6.1900   62.9540 C.3    33  LYS33       0.1093
     29  NZ        23.7630    6.5600   61.6470 N.3    33  LYS33      -0.1314
     30  N         27.3300   -1.9710   59.4050 N.3    56  VAL56      -0.1245
     31  CA        27.0900   -1.6430   60.8180 C.3    56  VAL56       0.1561
     32  C         25.8340   -2.4050   61.2710 C.2    56  VAL56       0.2260
     33  O         24.7730   -2.2390   60.6830 O.2    56  VAL56      -0.2867
     34  CB        26.9250   -0.0970   61.0350 C.3    56  VAL56       0.0252
     35  CG1       26.6270    0.2140   62.5480 C.3    56  VAL56       0.0019
     36  CG2       28.1990    0.6530   60.5430 C.3    56  VAL56       0.0019
     37  N         22.0220    0.7690   66.6900 N.3    72  PHE72      -0.1227
     38  CA        23.1410    0.2110   65.9050 C.3    72  PHE72       0.1736
     39  C         24.3260   -0.1190   66.8140 C.2    72  PHE72       0.2595
     40  O         24.5790    0.6160   67.8170 O.2    72  PHE72      -0.2718
     41  CB        23.6290    1.2570   64.8850 C.3    72  PHE72       0.0547
     42  CG        22.7310    1.4000   63.6940 C.ar   72  PHE72      -0.0202
     43  CD1       22.7160    0.4210   62.6960 C.ar   72  PHE72      -0.0042
     44  CD2       21.8420    2.4510   63.6100 C.ar   72  PHE72      -0.0042
     45  CE1       21.8280    0.5090   61.6380 C.ar   72  PHE72      -0.0003
     46  CE2       20.9730    2.5530   62.5350 C.ar   72  PHE72      -0.0003
     47  CZ        20.9820    1.5990   61.5390 C.ar   72  PHE72      -0.0000
     48  N         25.1530   -1.0770   66.3820 N.am   73  GLU73      -0.1965
     49  CA        26.4910   -1.2070   66.9740 C.3    73  GLU73       0.1733
     50  C         27.2740    0.1050   66.8460 C.2    73  GLU73       0.2616
     51  O         27.2460    0.7860   65.8090 O.2    73  GLU73      -0.2715
     52  CB        27.2640   -2.3240   66.2880 C.3    73  GLU73       0.0429
     53  CG        27.9550   -1.9220   65.0530 C.3    73  GLU73       0.1163
     54  CD        28.8310   -3.0320   64.4760 C.2    73  GLU73       0.3649
     55  OE1       29.9630   -3.2810   64.9380 O.co2  73  GLU73      -0.2457
     56  OE2       28.4620   -3.5090   63.4230 O.co2  73  GLU73      -0.2457
     57  N         28.0050    0.4390   67.8940 N.am   74  PHE74      -0.1960
     58  CA        28.6880    1.7110   67.9740 C.3    74  PHE74       0.1771
     59  C         30.0740    1.5470   67.3750 C.2    74  PHE74       0.2619
     60  O         30.7430    0.5690   67.6710 O.2    74  PHE74      -0.2715
     61  CB        28.8140    2.1260   69.4450 C.3    74  PHE74       0.0574
     62  CG        29.5470    3.4050   69.6310 C.ar   74  PHE74      -0.0200
     63  CD1       30.9070    3.3990   69.9490 C.ar   74  PHE74      -0.0042
     64  CD2       28.9190    4.6150   69.3730 C.ar   74  PHE74      -0.0042
     65  CE1       31.6030    4.6060   70.1000 C.ar   74  PHE74      -0.0003
     66  CE2       29.6050    5.8090   69.5120 C.ar   74  PHE74      -0.0003
     67  CZ        30.9540    5.8090   69.8520 C.ar   74  PHE74      -0.0000
     68  N         30.4730    2.4470   66.4740 N.am   75  LEU75      -0.1963
     69  CA        31.8930    2.5200   66.0680 C.3    75  LEU75       0.1728
     70  C         32.3870    3.9320   66.3780 C.2    75  LEU75       0.2616
     71  O         31.5980    4.8650   66.3710 O.2    75  LEU75      -0.2715
     72  CB        32.0780    2.2060   64.5630 C.3    75  LEU75       0.0311
     73  CG        32.0970    0.7070   64.2190 C.3    75  LEU75       0.0022
     74  CD1       30.6500    0.2280   64.0360 C.3    75  LEU75       0.0001
     75  CD2       33.0100    0.2800   63.0020 C.3    75  LEU75       0.0001
     76  N         33.6700    4.0610   66.6990 N.am   76  HIS76      -0.1959
     77  CA        34.1980    5.2600   67.3430 C.3    76  HIS76       0.1787
     78  C         34.6070    6.3930   66.4040 C.2    76  HIS76       0.2620
     79  O         34.7640    7.5170   66.8510 O.2    76  HIS76      -0.2715
     80  CB        35.3960    4.9300   68.2390 C.3    76  HIS76       0.0785
     81  CG        35.0430    4.1990   69.4970 C.ar   76  HIS76       0.0821
     82  ND1       34.8870    2.8210   69.5410 N.ar   76  HIS76      -0.2267
     83  CD2       34.9440    4.6320   70.7800 C.ar   76  HIS76       0.1154
     84  CE1       34.6390    2.4500   70.7820 C.ar   76  HIS76       0.1986
     85  NE2       34.6660    3.5290   71.5550 N.ar   76  HIS76      -0.2212
     86  N         34.7650    6.1260   65.1090 N.am   77  GLN77      -0.1963
     87  CA        35.0460    7.2030   64.1530 C.3    77  GLN77       0.1733
     88  C         34.4630    6.9260   62.7900 C.2    77  GLN77       0.2616
     89  O         34.2870    5.7790   62.4320 O.2    77  GLN77      -0.2715
     90  CB        36.5550    7.3750   63.9790 C.3    77  GLN77       0.0408
     91  CG        36.8720    8.7620   63.3570 C.3    77  GLN77       0.0908
     92  CD        38.3310    8.9690   63.0870 C.2    77  GLN77       0.2608
     93  OE1       38.7710   10.0920   62.8720 O.2    77  GLN77      -0.2717
     94  NE2       39.0900    7.8840   63.0620 N.am   77  GLN77      -0.0878
     95  N         34.2620    7.9750   61.9970 N.am   78  ASP78      -0.1971
     96  CA        33.8830    7.8320   60.5860 C.3    78  ASP78       0.1709
     97  C         35.0660    8.1990   59.6980 C.2    78  ASP78       0.2293
     98  O         36.0860    8.7320   60.1690 O.2    78  ASP78      -0.2864
     99  CB        32.6370    8.6770   60.2440 C.3    78  ASP78       0.1436
    100  CG        32.9110   10.1910   60.2780 C.2    78  ASP78       0.3671
    101  OD1       33.9870   10.6590   59.8410 O.co2  78  ASP78      -0.2456
    102  OD2       32.0210   10.9210   60.7200 O.co2  78  ASP78      -0.2456
    103  N         36.1950   12.1660   59.1880 N.3    81  LYS81      -0.1245
    104  CA        37.1060   12.6200   60.2430 C.3    81  LYS81       0.1561
    105  C         38.5220   12.0720   60.1320 C.2    81  LYS81       0.2260
    106  O         39.4890   12.7940   60.3780 O.2    81  LYS81      -0.2867
    107  CB        36.5670   12.3070   61.6420 C.3    81  LYS81       0.0271
    108  CG        35.2200   12.8940   61.9320 C.3    81  LYS81       0.0035
    109  CD        35.1030   13.2450   63.4100 C.3    81  LYS81       0.0206
    110  CE        33.6750   13.0790   63.9130 C.3    81  LYS81       0.1093
    111  NZ        32.6660   13.2540   62.8340 N.3    81  LYS81      -0.1314
    112  N         32.2480    3.7860   58.6830 N.3   126  LEU126     -0.1245
    113  CA        32.7750    3.8220   60.0530 C.3   126  LEU126      0.1561
    114  C         33.9330    2.8590   60.2790 C.2   126  LEU126      0.2260
    115  O         33.9160    1.7240   59.7820 O.2   126  LEU126     -0.2867
    116  CB        31.6410    3.5500   61.0840 C.3   126  LEU126      0.0270
    117  CG        30.3650    4.4290   60.9340 C.3   126  LEU126      0.0019
    118  CD1       29.2770    4.0530   61.9420 C.3   126  LEU126      0.0001
    119  CD2       30.6730    5.9580   61.0360 C.3   126  LEU126      0.0001
    120  N         27.3810    2.2640   57.2700 N.3   136  ALA136     -0.1245
    121  CA        26.2220    2.6290   58.1220 C.3   136  ALA136      0.1562
    122  C         25.0350    3.0710   57.2620 C.2   136  ALA136      0.2260
    123  O         25.2470    3.6290   56.2030 O.2   136  ALA136     -0.2867
    124  CB        26.6220    3.7670   59.0930 C.3   136  ALA136      0.0290
@<TRIPOS>BOND
     1   123   122    2
     2   122   121    1
     3   120   121    1
     4   121   124    1
     5   112   113    1
     6   103   104    1
     7    30    31    1
     8    97    98    2
     9    97    96    1
    10   115   114    2
    11   101   100   ar
    12   113   114    1
    13   113   116    1
    14   105   104    1
    15   105   106    2
    16   104   107    1
    17    99   100    1
    18    99    96    1
    19   100   102   ar
    20    36    34    1
    21    96    95    1
    22    33    32    2
    23    31    34    1
    24    31    32    1
    25   117   119    1
    26   117   116    1
    27   117   118    1
    28    34    35    1
    29    47    45   ar
    30    47    46   ar
    31    45    43   ar
    32   107   108    1
    33    29    28    1
    34   108   109    1
    35    95    88   am
    36    89    88    2
    37    46    44   ar
    38    43    42   ar
    39    88    87    1
    40   111   110    1
    41    93    92    2
    42    28    27    1
    43    27    26    1
    44    75    73    1
    45    94    92   am
    46    92    91    1
    47    91    90    1
    48   109   110    1
    49    56    54   ar
    50    44    42   ar
    51    42    41    1
    52    90    87    1
    53    74    73    1
    54    15    13    1
    55    87    86    1
    56    73    72    1
    57    26    25    1
    58    25    22    1
    59    54    55   ar
    60    54    53    1
    61    72    69    1
    62    41    38    1
    63    53    52    1
    64    86    78   am
    65    13    14    1
    66    13    10    1
    67    51    50    2
    68    24    23    2
    69    22    23    1
    70    22    21    1
    71    38    37    1
    72    38    39    1
    73    69    70    1
    74    69    68    1
    75     9    10    1
    76    52    49    1
    77     4     3    2
    78    71    70    2
    79    70    76   am
    80    48    39   am
    81    48    49    1
    82    78    79    2
    83    78    77    1
    84    68    59   am
    85    10    11    1
    86    76    77    1
    87    39    40    2
    88    50    49    1
    89    50    57   am
    90     3     2    1
    91    20    17    1
    92    77    80    1
    93    59    60    2
    94    59    58    1
    95    11    12    2
    96    57    58    1
    97    19    18    2
    98     5     6    1
    99     5     2    1
   100     5     7    1
   101    58    61    1
   102     6     8    1
   103     2     1    1
   104    80    81    1
   105    18    17    1
   106    17    16    1
   107    64    66   ar
   108    64    62   ar
   109    61    62    1
   110    81    82   ar
   111    81    83   ar
   112    66    67   ar
   113    82    84   ar
   114    62    63   ar
   115    67    65   ar
   116    63    65   ar
   117    83    85   ar
   118    84    85   ar
