@<TRIPOS>MOLECULE
tmp/2vtmA00.pdb
 119 114 0 0 0
SMALL
GASTEIGER

@<TRIPOS>ATOM
      1  N         26.1610   12.5150   69.0430 N.3    10  ILE10      -0.1231
      2  CA        27.3960   12.2470   68.3220 C.3    10  ILE10       0.1692
      3  C         27.2390   12.4970   66.8480 C.2    10  ILE10       0.2592
      4  O         28.2070   12.4040   66.0920 O.2    10  ILE10      -0.2718
      5  CB        27.9340   10.8270   68.5780 C.3    10  ILE10       0.0266
      6  CG1       26.9690    9.7730   68.0560 C.3    10  ILE10       0.0019
      7  CG2       28.2540   10.6270   70.0570 C.3    10  ILE10       0.0020
      8  CD1       27.3000    8.3720   68.5350 C.3    10  ILE10       0.0001
      9  N         26.0210   12.8410   66.4400 N.am   11  GLY11      -0.1957
     10  CA        25.7300   13.1070   65.0460 C.3    11  GLY11       0.1869
     11  C         24.3660   13.7390   64.8380 C.2    11  GLY11       0.2309
     12  O         23.6370   14.0310   65.7980 O.2    11  GLY11      -0.2863
     13  N         21.6700   11.3200   66.3430 N.3    18  VAL18      -0.1245
     14  CA        22.3240   10.0700   66.7260 C.3    18  VAL18       0.1561
     15  C         23.0100   10.2770   68.0620 C.2    18  VAL18       0.2260
     16  O         23.8600   11.1620   68.2180 O.2    18  VAL18      -0.2867
     17  CB        23.3660    9.6390   65.6630 C.3    18  VAL18       0.0252
     18  CG1       23.8820    8.1870   65.9280 C.3    18  VAL18       0.0019
     19  CG2       22.8140    9.7980   64.2830 C.3    18  VAL18       0.0019
     20  N         24.8550    2.9900   69.2470 N.3    31  ALA31      -0.1245
     21  CA        24.4880    4.2480   68.6190 C.3    31  ALA31       0.1562
     22  C         22.9710    4.2330   68.6020 C.2    31  ALA31       0.2260
     23  O         22.3630    3.2730   68.1180 O.2    31  ALA31      -0.2867
     24  CB        25.0310    4.2930   67.1850 C.3    31  ALA31       0.0290
     25  N         19.6280    5.8940   67.2140 N.3    33  LYS33      -0.1245
     26  CA        19.1170    6.7800   66.1650 C.3    33  LYS33       0.1561
     27  C         17.6430    7.1290   66.3790 C.2    33  LYS33       0.2260
     28  O         16.7930    6.2530   66.3790 O.2    33  LYS33      -0.2867
     29  CB        19.1960    6.0710   64.8260 C.3    33  LYS33       0.0271
     30  CG        19.9350    6.7930   63.7920 C.3    33  LYS33       0.0035
     31  CD        21.3390    6.2290   63.7420 C.3    33  LYS33       0.0206
     32  CE        22.2540    7.1450   62.9730 C.3    33  LYS33       0.1093
     33  NZ        23.3090    6.3750   62.2890 N.3    33  LYS33      -0.1314
     34  N         27.3950   -2.2000   59.6750 N.3    56  VAL56      -0.1245
     35  CA        27.1620   -1.8300   61.0730 C.3    56  VAL56       0.1561
     36  C         25.9080   -2.5420   61.5370 C.2    56  VAL56       0.2260
     37  O         24.8380   -2.3590   60.9490 O.2    56  VAL56      -0.2867
     38  CB        26.9500   -0.2970   61.2460 C.3    56  VAL56       0.0252
     39  CG1       26.7040    0.0410   62.7580 C.3    56  VAL56       0.0019
     40  CG2       28.1640    0.4540   60.7100 C.3    56  VAL56       0.0019
     41  N         22.1280    0.7080   66.8620 N.3    72  PHE72      -0.1227
     42  CA        23.2460    0.1140   66.1260 C.3    72  PHE72       0.1736
     43  C         24.4210   -0.1530   67.0600 C.2    72  PHE72       0.2595
     44  O         24.5400    0.5010   68.1170 O.2    72  PHE72      -0.2718
     45  CB        23.7100    1.0820   65.0310 C.3    72  PHE72       0.0547
     46  CG        22.7150    1.2420   63.9270 C.ar   72  PHE72      -0.0202
     47  CD1       22.5770    0.2540   62.9540 C.ar   72  PHE72      -0.0042
     48  CD2       21.9210    2.3660   63.8580 C.ar   72  PHE72      -0.0042
     49  CE1       21.6410    0.3690   61.9440 C.ar   72  PHE72      -0.0003
     50  CE2       20.9660    2.4820   62.8690 C.ar   72  PHE72      -0.0003
     51  CZ        20.8240    1.4800   61.9060 C.ar   72  PHE72      -0.0000
     52  N         25.2930   -1.0780   66.6810 N.am   73  GLU73      -0.1965
     53  CA        26.5990   -1.1620   67.3380 C.3    73  GLU73       0.1733
     54  C         27.3200    0.1800   67.2110 C.2    73  GLU73       0.2616
     55  O         27.2650    0.8570   66.1830 O.2    73  GLU73      -0.2715
     56  CB        27.4960   -2.2760   66.7630 C.3    73  GLU73       0.0429
     57  CG        27.5930   -2.2950   65.2820 C.3    73  GLU73       0.1163
     58  CD        28.7710   -3.1320   64.7690 C.2    73  GLU73       0.3649
     59  OE1       29.7650   -3.2540   65.4820 O.co2  73  GLU73      -0.2457
     60  OE2       28.7240   -3.6500   63.6390 O.co2  73  GLU73      -0.2457
     61  N         28.0650    0.5090   68.2500 N.am   74  PHE74      -0.1960
     62  CA        28.8070    1.7540   68.3000 C.3    74  PHE74       0.1771
     63  C         30.2270    1.4890   67.8140 C.2    74  PHE74       0.2619
     64  O         30.8340    0.4760   68.1930 O.2    74  PHE74      -0.2715
     65  CB        28.8660    2.2290   69.7490 C.3    74  PHE74       0.0574
     66  CG        29.6890    3.4460   69.9310 C.ar   74  PHE74      -0.0200
     67  CD1       31.0360    3.3290   70.1990 C.ar   74  PHE74      -0.0042
     68  CD2       29.1380    4.6970   69.6730 C.ar   74  PHE74      -0.0042
     69  CE1       31.8130    4.4490   70.3100 C.ar   74  PHE74      -0.0003
     70  CE2       29.8960    5.8220   69.7860 C.ar   74  PHE74      -0.0003
     71  CZ        31.2470    5.7110   70.1030 C.ar   74  PHE74      -0.0000
     72  N         30.6570    2.3120   66.8510 N.am   75  LEU75      -0.1963
     73  CA        32.0530    2.4050   66.3990 C.3    75  LEU75       0.1728
     74  C         32.5340    3.8320   66.6710 C.2    75  LEU75       0.2616
     75  O         31.7450    4.7800   66.5690 O.2    75  LEU75      -0.2715
     76  CB        32.2080    2.0820   64.8950 C.3    75  LEU75       0.0311
     77  CG        32.0020    0.6120   64.5000 C.3    75  LEU75       0.0022
     78  CD1       30.4960    0.3680   64.0870 C.3    75  LEU75       0.0001
     79  CD2       32.9460    0.0920   63.4080 C.3    75  LEU75       0.0001
     80  N         33.8210    3.9920   66.9470 N.am   76  HIS76      -0.1959
     81  CA        34.3130    5.2290   67.5060 C.3    76  HIS76       0.1787
     82  C         34.6850    6.2790   66.5220 C.2    76  HIS76       0.2620
     83  O         34.7880    7.4080   66.8340 O.2    76  HIS76      -0.2715
     84  CB        35.5740    4.9150   68.3310 C.3    76  HIS76       0.0785
     85  CG        35.2890    4.3390   69.7160 C.ar   76  HIS76       0.0821
     86  ND1       35.0470    2.9800   69.9400 N.ar   76  HIS76      -0.2267
     87  CD2       35.1120    4.9060   70.9430 C.ar   76  HIS76       0.1154
     88  CE1       34.8170    2.7490   71.2100 C.ar   76  HIS76       0.1986
     89  NE2       34.8570    3.9100   71.8560 N.ar   76  HIS76      -0.2212
     90  N         34.8890    5.8810   65.3010 N.am   77  GLN77      -0.1977
     91  CA        35.2000    6.9190   64.3200 C.3    77  GLN77       0.1601
     92  C         34.5970    6.6790   62.9480 C.2    77  GLN77       0.2287
     93  O         34.2950    5.5540   62.6040 O.2    77  GLN77      -0.2864
     94  CB        36.7230    7.1100   64.1650 C.3    77  GLN77       0.0394
     95  CG        37.0980    8.3890   63.4290 C.3    77  GLN77       0.0908
     96  CD        38.5480    8.3990   63.1220 C.2    77  GLN77       0.2608
     97  OE1       39.1840    9.4480   63.0990 O.2    77  GLN77      -0.2717
     98  NE2       39.1090    7.2120   62.9350 N.am   77  GLN77      -0.0878
     99  N         32.2960    3.6150   59.0100 N.3   126  LEU126     -0.1245
    100  CA        32.7060    3.6420   60.4080 C.3   126  LEU126      0.1561
    101  C         33.8670    2.7130   60.6810 C.2   126  LEU126      0.2260
    102  O         33.8620    1.5610   60.2220 O.2   126  LEU126     -0.2867
    103  CB        31.5460    3.3180   61.3230 C.3   126  LEU126      0.0270
    104  CG        30.2770    4.1980   61.2380 C.3   126  LEU126      0.0019
    105  CD1       29.2580    3.6750   62.2570 C.3   126  LEU126      0.0001
    106  CD2       30.5530    5.6740   61.5090 C.3   126  LEU126      0.0001
    107  N         27.4050    2.2050   57.4100 N.3   136  ALA136     -0.1231
    108  CA        26.2660    2.6090   58.2800 C.3   136  ALA136      0.1694
    109  C         25.0610    3.0580   57.4470 C.2   136  ALA136      0.2592
    110  O         25.2370    3.4870   56.3190 O.2   136  ALA136     -0.2718
    111  CB        26.6680    3.7250   59.2510 C.3   136  ALA136      0.0304
    112  N         23.8700    3.0790   58.0540 N.am  137  ASP137     -0.1974
    113  CA        22.6040    3.4520   57.3750 C.3   137  ASP137      0.1709
    114  C         22.2450    2.7400   56.0800 C.2   137  ASP137      0.2293
    115  O         21.5940    3.3250   55.2120 O.2   137  ASP137     -0.2864
    116  CB        22.5230    4.9480   57.1720 C.3   137  ASP137      0.1436
    117  CG        22.6560    5.6810   58.4650 C.2   137  ASP137      0.3671
    118  OD1       22.6000    4.9950   59.5230 O.co2 137  ASP137     -0.2456
    119  OD2       22.8420    6.9230   58.4270 O.co2 137  ASP137     -0.2456
@<TRIPOS>BOND
     1   115   114    2
     2   114   113    1
     3   110   109    2
     4   116   113    1
     5   116   117    1
     6   113   112    1
     7   107   108    1
     8   109   112   am
     9   109   108    1
    10   108   111    1
    11   119   117   ar
    12   117   118   ar
    13    99   100    1
    14    34    35    1
    15   102   101    2
    16   100   101    1
    17   100   103    1
    18    40    38    1
    19    37    36    2
    20    35    38    1
    21    35    36    1
    22   104   103    1
    23   104   106    1
    24   104   105    1
    25    38    39    1
    26    51    49   ar
    27    51    50   ar
    28    49    47   ar
    29    33    32    1
    30    93    92    2
    31    50    48   ar
    32    98    96   am
    33    92    91    1
    34    47    46   ar
    35    32    31    1
    36    97    96    2
    37    96    95    1
    38    79    77    1
    39    95    94    1
    40    60    58   ar
    41    31    30    1
    42    30    29    1
    43    48    46   ar
    44    46    45    1
    45    78    77    1
    46    94    91    1
    47    19    17    1
    48    91    90    1
    49    77    76    1
    50    58    57    1
    51    58    59   ar
    52    29    26    1
    53    11    10    1
    54    11    12    2
    55    76    73    1
    56    45    42    1
    57    10     9    1
    58    57    56    1
    59    90    82   am
    60    17    18    1
    61    17    14    1
    62     4     3    2
    63    42    41    1
    64    42    43    1
    65    26    27    1
    66    26    25    1
    67    55    54    2
    68    13    14    1
    69    28    27    2
    70    73    74    1
    71    73    72    1
    72     9     3   am
    73    82    83    2
    74    82    81    1
    75    75    74    2
    76    74    80   am
    77    52    43   am
    78    52    53    1
    79    14    15    1
    80    56    53    1
    81     3     2    1
    82    72    63   am
    83    80    81    1
    84    43    44    2
    85    24    21    1
    86    54    53    1
    87    54    61   am
    88    81    84    1
    89    63    64    2
    90    63    62    1
    91     6     8    1
    92     6     5    1
    93    15    16    2
    94    23    22    2
    95    61    62    1
    96    62    65    1
    97     2     5    1
    98     2     1    1
    99    84    85    1
   100     5     7    1
   101    22    21    1
   102    21    20    1
   103    68    70   ar
   104    68    66   ar
   105    85    86   ar
   106    85    87   ar
   107    65    66    1
   108    70    71   ar
   109    66    67   ar
   110    86    88   ar
   111    71    69   ar
   112    67    69   ar
   113    87    89   ar
   114    88    89   ar
