@<TRIPOS>MOLECULE
tmp/2vtnA00.pdb
 140 133 0 0 0
SMALL
GASTEIGER

@<TRIPOS>ATOM
      1  N         26.3050   12.3190   67.9630 N.3    10  ILE10      -0.1245
      2  CA        27.4350   12.0190   67.1030 C.3    10  ILE10       0.1561
      3  C         27.1590   12.2960   65.6280 C.2    10  ILE10       0.2260
      4  O         28.0020   12.0310   64.7540 O.2    10  ILE10      -0.2867
      5  CB        28.0050   10.6010   67.3530 C.3    10  ILE10       0.0252
      6  CG1       27.0630    9.5260   66.8360 C.3    10  ILE10       0.0019
      7  CG2       28.2370   10.3430   68.8240 C.3    10  ILE10       0.0019
      8  CD1       27.3960    8.1530   67.4140 C.3    10  ILE10       0.0001
      9  N         21.7830   11.1120   65.2890 N.3    18  VAL18      -0.1245
     10  CA        22.4420    9.9000   65.7530 C.3    18  VAL18       0.1561
     11  C         23.1070   10.1720   67.0820 C.2    18  VAL18       0.2260
     12  O         23.7940   11.1590   67.2380 O.2    18  VAL18      -0.2867
     13  CB        23.4630    9.3330   64.7390 C.3    18  VAL18       0.0252
     14  CG1       23.8700    7.9070   65.1580 C.3    18  VAL18       0.0019
     15  CG2       22.8910    9.3180   63.3640 C.3    18  VAL18       0.0019
     16  N         24.8820    2.7810   68.7870 N.3    31  ALA31      -0.1245
     17  CA        24.5290    3.9960   68.0700 C.3    31  ALA31       0.1562
     18  C         22.9890    4.0020   67.9370 C.2    31  ALA31       0.2260
     19  O         22.3880    3.0080   67.5240 O.2    31  ALA31      -0.2867
     20  CB        25.1800    4.0000   66.6910 C.3    31  ALA31       0.0290
     21  N         19.7560    5.8430   66.3370 N.3    33  LYS33      -0.1245
     22  CA        19.2410    6.8320   65.3940 C.3    33  LYS33       0.1561
     23  C         17.7220    7.0940   65.5790 C.2    33  LYS33       0.2260
     24  O         16.9090    6.1780   65.5140 O.2    33  LYS33      -0.2867
     25  CB        19.5300    6.3740   63.9490 C.3    33  LYS33       0.0271
     26  CG        19.3480    7.4890   62.9250 C.3    33  LYS33       0.0035
     27  CD        19.3500    6.9610   61.5080 C.3    33  LYS33       0.0206
     28  CE        19.5330    8.1390   60.5240 C.3    33  LYS33       0.1093
     29  NZ        19.3950    7.7450   59.0910 N.3    33  LYS33      -0.1314
     30  N         27.3350   -2.2590   59.1420 N.3    56  VAL56      -0.1245
     31  CA        27.0020   -1.9360   60.5420 C.3    56  VAL56       0.1561
     32  C         25.7980   -2.7890   60.9910 C.2    56  VAL56       0.2260
     33  O         24.7220   -2.7120   60.3860 O.2    56  VAL56      -0.2867
     34  CB        26.5910   -0.4280   60.7460 C.3    56  VAL56       0.0252
     35  CG1       26.6810   -0.0700   62.2250 C.3    56  VAL56       0.0019
     36  CG2       27.4420    0.4620   59.9540 C.3    56  VAL56       0.0019
     37  N         22.1160    0.4820   66.5770 N.3    72  PHE72      -0.1227
     38  CA        23.2110   -0.0010   65.7500 C.3    72  PHE72       0.1736
     39  C         24.3970   -0.3220   66.6220 C.2    72  PHE72       0.2595
     40  O         24.5700    0.2940   67.6810 O.2    72  PHE72      -0.2718
     41  CB        23.6120    1.0570   64.7030 C.3    72  PHE72       0.0547
     42  CG        22.6360    1.1990   63.5710 C.ar   72  PHE72      -0.0202
     43  CD1       22.5160    0.1910   62.6010 C.ar   72  PHE72      -0.0042
     44  CD2       21.9380    2.3780   63.4000 C.ar   72  PHE72      -0.0042
     45  CE1       21.6890    0.3470   61.5110 C.ar   72  PHE72      -0.0003
     46  CE2       21.0660    2.5360   62.3390 C.ar   72  PHE72      -0.0003
     47  CZ        20.9280    1.5120   61.3830 C.ar   72  PHE72      -0.0000
     48  N         25.1180   -1.3800   66.2430 N.am   73  GLU73      -0.1965
     49  CA        26.5470   -1.5530   66.6190 C.3    73  GLU73       0.1733
     50  C         27.2580   -0.1680   66.6400 C.2    73  GLU73       0.2616
     51  O         27.2240    0.5800   65.6600 O.2    73  GLU73      -0.2715
     52  CB        27.2090   -2.4400   65.5310 C.3    73  GLU73       0.0429
     53  CG        28.6870   -2.6370   65.6640 C.3    73  GLU73       0.1163
     54  CD        29.2730   -3.4480   64.5270 C.2    73  GLU73       0.3649
     55  OE1       30.2410   -4.1940   64.7550 O.co2  73  GLU73      -0.2457
     56  OE2       28.7270   -3.4060   63.4170 O.co2  73  GLU73      -0.2457
     57  N         27.9250    0.1550   67.7350 N.am   74  PHE74      -0.1960
     58  CA        28.6970    1.4050   67.7880 C.3    74  PHE74       0.1771
     59  C         30.0920    1.2390   67.1390 C.2    74  PHE74       0.2619
     60  O         30.8130    0.2930   67.4490 O.2    74  PHE74      -0.2715
     61  CB        28.8380    1.9000   69.2450 C.3    74  PHE74       0.0574
     62  CG        29.5220    3.2160   69.3550 C.ar   74  PHE74      -0.0200
     63  CD1       28.8500    4.3950   68.9890 C.ar   74  PHE74      -0.0042
     64  CD2       30.8740    3.2850   69.6600 C.ar   74  PHE74      -0.0042
     65  CE1       29.4890    5.6280   69.0120 C.ar   74  PHE74      -0.0003
     66  CE2       31.5050    4.5120   69.7020 C.ar   74  PHE74      -0.0003
     67  CZ        30.8110    5.6920   69.3660 C.ar   74  PHE74      -0.0000
     68  N         30.4560    2.1420   66.2270 N.am   75  LEU75      -0.1963
     69  CA        31.8450    2.2680   65.7850 C.3    75  LEU75       0.1728
     70  C         32.3520    3.6390   66.1410 C.2    75  LEU75       0.2616
     71  O         31.5770    4.5870   66.1620 O.2    75  LEU75      -0.2715
     72  CB        32.0240    2.0030   64.2800 C.3    75  LEU75       0.0311
     73  CG        31.9410    0.5210   63.8840 C.3    75  LEU75       0.0022
     74  CD1       30.4430    0.1310   63.7410 C.3    75  LEU75       0.0001
     75  CD2       32.7440    0.2040   62.5950 C.3    75  LEU75       0.0001
     76  N         33.6630    3.7540   66.3300 N.am   76  HIS76      -0.1959
     77  CA        34.2190    4.9480   66.9680 C.3    76  HIS76       0.1787
     78  C         34.5490    6.1050   66.0350 C.2    76  HIS76       0.2620
     79  O         34.7350    7.2110   66.4740 O.2    76  HIS76      -0.2715
     80  CB        35.4200    4.6120   67.8470 C.3    76  HIS76       0.0785
     81  CG        35.0640    3.9000   69.1210 C.ar   76  HIS76       0.0821
     82  ND1       34.8190    2.5390   69.1610 N.ar   76  HIS76      -0.2267
     83  CD2       35.0080    4.3320   70.4080 C.ar   76  HIS76       0.1154
     84  CE1       34.5760    2.1690   70.4090 C.ar   76  HIS76       0.1986
     85  NE2       34.6940    3.2350   71.1900 N.ar   76  HIS76      -0.2212
     86  N         34.6970    5.8300   64.7500 N.am   77  GLN77      -0.1963
     87  CA        35.0150    6.9010   63.8310 C.3    77  GLN77       0.1733
     88  C         34.4830    6.6420   62.4140 C.2    77  GLN77       0.2616
     89  O         34.4300    5.5050   61.9540 O.2    77  GLN77      -0.2715
     90  CB        36.5260    7.1750   63.8700 C.3    77  GLN77       0.0408
     91  CG        37.0530    8.0100   62.7080 C.3    77  GLN77       0.0908
     92  CD        37.5900    9.3680   63.1110 C.2    77  GLN77       0.2608
     93  OE1       38.7790    9.6170   62.9330 O.2    77  GLN77      -0.2717
     94  NE2       36.7250   10.2810   63.5140 N.am   77  GLN77      -0.0878
     95  N         34.1020    7.7060   61.7190 N.am   78  ASP78      -0.1971
     96  CA        33.7590    7.6050   60.2940 C.3    78  ASP78       0.1709
     97  C         34.9390    7.9620   59.3920 C.2    78  ASP78       0.2293
     98  O         35.8910    8.6160   59.8290 O.2    78  ASP78      -0.2864
     99  CB        32.5470    8.4670   59.9690 C.3    78  ASP78       0.1436
    100  CG        32.8580    9.9770   60.0100 C.2    78  ASP78       0.3671
    101  OD1       33.7130   10.4740   59.2520 O.co2  78  ASP78      -0.2456
    102  OD2       32.1380   10.6870   60.6960 O.co2  78  ASP78      -0.2456
    103  N         35.9990   11.9370   58.8520 N.3    81  LYS81      -0.1245
    104  CA        36.8340   12.4290   59.9460 C.3    81  LYS81       0.1561
    105  C         38.2480   11.7900   59.9130 C.2    81  LYS81       0.2260
    106  O         39.2360   12.4160   60.3300 O.2    81  LYS81      -0.2867
    107  CB        36.1030   12.1970   61.2870 C.3    81  LYS81       0.0271
    108  CG        35.0820   13.3280   61.6300 C.3    81  LYS81       0.0035
    109  CD        33.6950   12.8450   62.1520 C.3    81  LYS81       0.0206
    110  CE        32.8610   14.0000   62.7400 C.3    81  LYS81       0.1093
    111  NZ        31.4310   13.6460   63.0030 N.3    81  LYS81      -0.1314
    112  N         29.1900    8.0550   56.0230 N.3   124  ASN124     -0.1240
    113  CA        28.3860    6.8440   56.2780 C.3   124  ASN124      0.1653
    114  C         29.2620    5.6200   56.3390 C.2   124  ASN124      0.2266
    115  O         28.8140    4.5200   56.0870 O.2   124  ASN124     -0.2867
    116  CB        27.4470    6.5830   55.0750 C.3   124  ASN124      0.1155
    117  CG        26.2670    7.4820   55.0450 C.2   124  ASN124      0.2627
    118  OD1       25.8490    8.0010   56.0720 O.2   124  ASN124     -0.2716
    119  ND2       25.7070    7.6830   53.8500 N.am  124  ASN124     -0.0877
    120  N         32.0760    3.5880   58.2820 N.3   126  LEU126     -0.1245
    121  CA        32.4980    3.5340   59.6680 C.3   126  LEU126      0.1561
    122  C         33.6490    2.5900   59.8830 C.2   126  LEU126      0.2260
    123  O         33.6500    1.4520   59.3720 O.2   126  LEU126     -0.2867
    124  CB        31.3350    3.1190   60.5590 C.3   126  LEU126      0.0270
    125  CG        30.0760    3.9980   60.6090 C.3   126  LEU126      0.0019
    126  CD1       29.0800    3.2800   61.5190 C.3   126  LEU126      0.0001
    127  CD2       30.3850    5.4140   61.1570 C.3   126  LEU126      0.0001
    128  N         27.1010    2.0560   56.5250 N.3   136  ALA136     -0.1231
    129  CA        26.0060    2.4560   57.4340 C.3   136  ALA136      0.1694
    130  C         24.9950    3.3630   56.7320 C.2   136  ALA136      0.2592
    131  O         25.2920    3.9040   55.6770 O.2   136  ALA136     -0.2718
    132  CB        26.5640    3.1650   58.6770 C.3   136  ALA136      0.0304
    133  N         23.8570    3.6150   57.3820 N.am  137  ASP137     -0.1974
    134  CA        22.8970    4.6610   56.9680 C.3   137  ASP137      0.1709
    135  C         22.4220    4.3900   55.5700 C.2   137  ASP137      0.2293
    136  O         22.4620    5.2720   54.7010 O.2   137  ASP137     -0.2864
    137  CB        23.5550    6.0390   56.9800 C.3   137  ASP137      0.1436
    138  CG        22.8140    7.0220   57.8430 C.2   137  ASP137      0.3671
    139  OD1       23.2170    8.2050   57.8990 O.co2 137  ASP137     -0.2456
    140  OD2       21.8840    6.5870   58.5390 O.co2 137  ASP137     -0.2456
@<TRIPOS>BOND
     1   119   117   am
     2   136   135    2
     3   117   116    1
     4   117   118    2
     5   116   113    1
     6   135   134    1
     7   131   130    2
     8   112   113    1
     9   115   114    2
    10   113   114    1
    11   128   129    1
    12   130   133   am
    13   130   129    1
    14   134   137    1
    15   134   133    1
    16   137   138    1
    17   129   132    1
    18   138   139   ar
    19   138   140   ar
    20   120   121    1
    21   103   104    1
    22    29    28    1
    23    30    31    1
    24   101   100   ar
    25   123   122    2
    26    97    98    2
    27    97    96    1
    28   121   122    1
    29   121   124    1
    30   105   104    1
    31   105   106    2
    32   104   107    1
    33    36    34    1
    34    99   100    1
    35    99    96    1
    36   100   102   ar
    37    96    95    1
    38    33    32    2
    39    28    27    1
    40    31    34    1
    41    31    32    1
    42   124   125    1
    43   125   127    1
    44   125   126    1
    45    34    35    1
    46   107   108    1
    47    47    45   ar
    48    47    46   ar
    49    27    26    1
    50    45    43   ar
    51   108   109    1
    52    95    88   am
    53    89    88    2
    54   109   110    1
    55    46    44   ar
    56    88    87    1
    57    75    73    1
    58    43    42   ar
    59    91    92    1
    60    91    90    1
    61   110   111    1
    62    26    25    1
    63    93    92    2
    64    92    94   am
    65    15    13    1
    66    44    42   ar
    67    56    54   ar
    68    42    41    1
    69    74    73    1
    70    87    90    1
    71    87    86    1
    72    73    72    1
    73    25    22    1
    74    72    69    1
    75    54    55   ar
    76    54    53    1
    77    41    38    1
    78    13    14    1
    79    13    10    1
    80    86    78   am
    81     4     3    2
    82     9    10    1
    83    22    23    1
    84    22    21    1
    85    24    23    2
    86    52    53    1
    87    52    49    1
    88     3     2    1
    89    51    50    2
    90    38    37    1
    91    38    39    1
    92    10    11    1
    93    69    70    1
    94    69    68    1
    95    78    79    2
    96    78    77    1
    97    70    71    2
    98    70    76   am
    99    68    59   am
   100    48    49    1
   101    48    39   am
   102    76    77    1
   103    49    50    1
   104    39    40    2
   105    50    57   am
   106    20    17    1
   107     6     5    1
   108     6     8    1
   109    77    80    1
   110    11    12    2
   111     2     5    1
   112     2     1    1
   113    59    60    2
   114    59    58    1
   115     5     7    1
   116    19    18    2
   117    57    58    1
   118    58    61    1
   119    80    81    1
   120    18    17    1
   121    17    16    1
   122    63    65   ar
   123    63    62   ar
   124    65    67   ar
   125    81    82   ar
   126    81    83   ar
   127    82    84   ar
   128    61    62    1
   129    62    64   ar
   130    67    66   ar
   131    64    66   ar
   132    83    85   ar
   133    84    85   ar
