@<TRIPOS>MOLECULE
tmp/2vtpA00.pdb
 160 152 0 0 0
SMALL
GASTEIGER

@<TRIPOS>ATOM
      1  N         26.1340   12.2120   68.8000 N.3    10  ILE10      -0.1245
      2  CA        27.1940   11.8470   67.8550 C.3    10  ILE10       0.1561
      3  C         27.1160   12.6740   66.5730 C.2    10  ILE10       0.2260
      4  O         28.0740   12.6930   65.7920 O.2    10  ILE10      -0.2867
      5  CB        27.1740   10.3490   67.5090 C.3    10  ILE10       0.0252
      6  CG1       27.5370    9.5090   68.7180 C.3    10  ILE10       0.0019
      7  CG2       28.1550   10.0440   66.4330 C.3    10  ILE10       0.0019
      8  CD1       27.5170    8.0310   68.3980 C.3    10  ILE10       0.0001
      9  N         22.2490   13.1300   61.7720 N.3    13  GLY13      -0.1210
     10  CA        22.0410   12.2450   60.6350 C.3    13  GLY13       0.1956
     11  C         21.0780   12.8120   59.5980 C.2    13  GLY13       0.2612
     12  O         20.5370   13.9230   59.7560 O.2    13  GLY13      -0.2717
     13  N         20.8980   12.0690   58.5080 N.am   14  THR14      -0.1952
     14  CA        19.9750   12.4640   57.4410 C.3    14  THR14       0.1897
     15  C         18.5370   12.3440   57.9490 C.2    14  THR14       0.2313
     16  O         17.6800   13.2080   57.7010 O.2    14  THR14      -0.2863
     17  CB        20.1810   11.5720   56.1710 C.3    14  THR14       0.1794
     18  OG1       21.5420   11.6690   55.7080 O.3    14  THR14      -0.2208
     19  CG2       19.2230   11.9930   55.0550 C.3    14  THR14       0.0378
     20  N         21.6600   11.5290   65.9890 N.3    18  VAL18      -0.1245
     21  CA        22.3930   10.3200   66.3620 C.3    18  VAL18       0.1561
     22  C         22.9940   10.4640   67.7350 C.2    18  VAL18       0.2260
     23  O         23.6430   11.4270   68.0400 O.2    18  VAL18      -0.2867
     24  CB        23.4770    9.9710   65.3450 C.3    18  VAL18       0.0252
     25  CG1       24.2840    8.7460   65.8410 C.3    18  VAL18       0.0019
     26  CG2       22.8780    9.7030   63.9800 C.3    18  VAL18       0.0019
     27  N         24.8390    2.9870   69.1630 N.3    31  ALA31      -0.1245
     28  CA        24.4690    4.1920   68.4600 C.3    31  ALA31       0.1562
     29  C         22.9430    4.1970   68.3460 C.2    31  ALA31       0.2260
     30  O         22.3390    3.2160   67.9550 O.2    31  ALA31      -0.2867
     31  CB        25.1370    4.2280   67.0540 C.3    31  ALA31       0.0290
     32  N         19.6970    6.0440   66.8150 N.3    33  LYS33      -0.1245
     33  CA        19.2810    6.9760   65.7780 C.3    33  LYS33       0.1561
     34  C         17.8030    7.2310   65.8560 C.2    33  LYS33       0.2260
     35  O         17.0290    6.3260   65.7350 O.2    33  LYS33      -0.2867
     36  CB        19.6830    6.4700   64.3950 C.3    33  LYS33       0.0271
     37  CG        19.2060    7.3470   63.2420 C.3    33  LYS33       0.0035
     38  CD        19.5400    6.7500   61.8870 C.3    33  LYS33       0.0206
     39  CE        19.0410    7.6500   60.7460 C.3    33  LYS33       0.1093
     40  NZ        19.4700    9.0950   60.8800 N.3    33  LYS33      -0.1314
     41  N         27.2520   -2.0640   59.3990 N.3    56  VAL56      -0.1245
     42  CA        27.0310   -1.6950   60.8110 C.3    56  VAL56       0.1561
     43  C         25.7900   -2.4620   61.2920 C.2    56  VAL56       0.2260
     44  O         24.7320   -2.3940   60.6480 O.2    56  VAL56      -0.2867
     45  CB        26.8480   -0.1590   61.0290 C.3    56  VAL56       0.0252
     46  CG1       26.6170    0.1230   62.5150 C.3    56  VAL56       0.0019
     47  CG2       28.1210    0.5950   60.5790 C.3    56  VAL56       0.0019
     48  N         22.1320    0.6950   66.7570 N.3    72  PHE72      -0.1227
     49  CA        23.1870    0.1770   65.8930 C.3    72  PHE72       0.1736
     50  C         24.3680   -0.1420   66.7680 C.2    72  PHE72       0.2595
     51  O         24.5680    0.5150   67.8080 O.2    72  PHE72      -0.2718
     52  CB        23.6170    1.2420   64.8450 C.3    72  PHE72       0.0547
     53  CG        22.6680    1.3740   63.6940 C.ar   72  PHE72      -0.0202
     54  CD1       22.4970    0.3370   62.7950 C.ar   72  PHE72      -0.0042
     55  CD2       21.8800    2.5150   63.5630 C.ar   72  PHE72      -0.0042
     56  CE1       21.5760    0.4460   61.7540 C.ar   72  PHE72      -0.0003
     57  CE2       20.9440    2.6030   62.5450 C.ar   72  PHE72      -0.0003
     58  CZ        20.7990    1.5530   61.6360 C.ar   72  PHE72      -0.0000
     59  N         25.1780   -1.1240   66.3640 N.am   73  GLU73      -0.1965
     60  CA        26.4590   -1.3380   67.0710 C.3    73  GLU73       0.1733
     61  C         27.2170   -0.0100   66.9370 C.2    73  GLU73       0.2616
     62  O         27.1190    0.6840   65.8980 O.2    73  GLU73      -0.2715
     63  CB        27.2640   -2.4680   66.4010 C.3    73  GLU73       0.0429
     64  CG        27.8310   -2.0490   65.1050 C.3    73  GLU73       0.1163
     65  CD        28.7460   -3.0850   64.4400 C.2    73  GLU73       0.3649
     66  OE1       29.7890   -3.4080   64.9900 O.co2  73  GLU73      -0.2457
     67  OE2       28.5190   -3.4200   63.2800 O.co2  73  GLU73      -0.2457
     68  N         27.9620    0.3490   67.9760 N.am   74  PHE74      -0.1960
     69  CA        28.6890    1.6070   68.0020 C.3    74  PHE74       0.1771
     70  C         30.0960    1.4370   67.4290 C.2    74  PHE74       0.2619
     71  O         30.7890    0.4940   67.7760 O.2    74  PHE74      -0.2715
     72  CB        28.8550    2.0500   69.4770 C.3    74  PHE74       0.0574
     73  CG        29.6010    3.3410   69.6270 C.ar   74  PHE74      -0.0200
     74  CD1       28.9830    4.5640   69.3290 C.ar   74  PHE74      -0.0042
     75  CD2       30.9280    3.3260   69.9780 C.ar   74  PHE74      -0.0042
     76  CE1       29.6920    5.7640   69.3730 C.ar   74  PHE74      -0.0003
     77  CE2       31.6510    4.5100   70.0190 C.ar   74  PHE74      -0.0003
     78  CZ        31.0280    5.7450   69.7270 C.ar   74  PHE74      -0.0000
     79  N         30.5250    2.3540   66.5590 N.am   75  LEU75      -0.1963
     80  CA        31.9560    2.4340   66.2050 C.3    75  LEU75       0.1728
     81  C         32.4760    3.8190   66.5020 C.2    75  LEU75       0.2616
     82  O         31.7180    4.7930   66.4280 O.2    75  LEU75      -0.2715
     83  CB        32.2100    2.0480   64.7520 C.3    75  LEU75       0.0311
     84  CG        31.9380    0.5820   64.3720 C.3    75  LEU75       0.0022
     85  CD1       30.4530    0.3460   64.1980 C.3    75  LEU75       0.0001
     86  CD2       32.6820    0.1100   63.1040 C.3    75  LEU75       0.0001
     87  N         33.7850    3.9310   66.7190 N.am   76  HIS76      -0.1959
     88  CA        34.3430    5.1570   67.2800 C.3    76  HIS76       0.1787
     89  C         34.6920    6.2480   66.2720 C.2    76  HIS76       0.2620
     90  O         35.0000    7.3680   66.6540 O.2    76  HIS76      -0.2715
     91  CB        35.5670    4.8290   68.1350 C.3    76  HIS76       0.0785
     92  CG        35.2260    4.1280   69.4020 C.ar   76  HIS76       0.0821
     93  ND1       34.9670    2.7710   69.4540 N.ar   76  HIS76      -0.2267
     94  CD2       35.0790    4.5930   70.6620 C.ar   76  HIS76       0.1154
     95  CE1       34.6850    2.4320   70.6950 C.ar   76  HIS76       0.1986
     96  NE2       34.7570    3.5180   71.4490 N.ar   76  HIS76      -0.2212
     97  N         34.7640    5.9080   64.9920 N.am   77  GLN77      -0.1963
     98  CA        35.0250    6.9450   64.0140 C.3    77  GLN77       0.1733
     99  C         34.4610    6.6640   62.6380 C.2    77  GLN77       0.2616
    100  O         34.2710    5.5210   62.2530 O.2    77  GLN77      -0.2715
    101  CB        36.5090    7.2460   63.9570 C.3    77  GLN77       0.0408
    102  CG        36.7850    8.6690   63.3350 C.3    77  GLN77       0.0908
    103  CD        38.2470    9.0070   63.3280 C.2    77  GLN77       0.2608
    104  OE1       38.9970    8.4930   62.5130 O.2    77  GLN77      -0.2717
    105  NE2       38.6830    9.7820   64.3140 N.am   77  GLN77      -0.0878
    106  N         34.2510    7.7180   61.8700 N.am   78  ASP78      -0.1971
    107  CA        33.8680    7.5790   60.4600 C.3    78  ASP78       0.1709
    108  C         35.0090    8.0410   59.5700 C.2    78  ASP78       0.2293
    109  O         35.9790    8.6790   60.0660 O.2    78  ASP78      -0.2864
    110  CB        32.5970    8.3910   60.1590 C.3    78  ASP78       0.1436
    111  CG        32.7930    9.9250   60.3590 C.2    78  ASP78       0.3671
    112  OD1       33.4720   10.5740   59.5580 O.co2  78  ASP78      -0.2456
    113  OD2       32.2260   10.4550   61.3070 O.co2  78  ASP78      -0.2456
    114  N         36.1070   11.9610   59.1990 N.3    81  LYS81      -0.1245
    115  CA        37.0140   12.4420   60.2440 C.3    81  LYS81       0.1561
    116  C         38.4200   11.8620   60.1110 C.2    81  LYS81       0.2260
    117  O         39.3920   12.5450   60.4040 O.2    81  LYS81      -0.2867
    118  CB        36.4320   12.1830   61.6510 C.3    81  LYS81       0.0271
    119  CG        37.2240   12.9160   62.7680 C.3    81  LYS81       0.0035
    120  CD        37.1390   12.2890   64.1670 C.3    81  LYS81       0.0206
    121  CE        37.8850   13.1740   65.1810 C.3    81  LYS81       0.1093
    122  NZ        38.0180   12.5780   66.5560 N.3    81  LYS81      -0.1314
    123  N         31.1210    9.9850   55.4640 N.3   123  GLN123     -0.1231
    124  CA        30.4410   10.1800   56.7530 C.3   123  GLN123      0.1698
    125  C         29.7320    8.9110   57.2450 C.2   123  GLN123      0.2592
    126  O         29.5720    8.7090   58.4200 O.2   123  GLN123     -0.2718
    127  CB        29.3560   11.2850   56.6190 C.3   123  GLN123      0.0381
    128  CG        29.8370   12.7380   56.4040 C.3   123  GLN123      0.0905
    129  CD        30.6150   12.9650   55.0880 C.2   123  GLN123      0.2608
    130  OE1       30.2270   12.4950   54.0190 O.2   123  GLN123     -0.2717
    131  NE2       31.7290   13.6920   55.1830 N.am  123  GLN123     -0.0878
    132  N         29.2150    8.1040   56.3410 N.am  124  ASN124     -0.1974
    133  CA        28.5520    6.8620   56.7510 C.3   124  ASN124      0.1688
    134  C         29.3840    5.5980   56.5710 C.2   124  ASN124      0.2292
    135  O         28.8660    4.5100   56.4180 O.2   124  ASN124     -0.2864
    136  CB        27.1350    6.7430   56.1440 C.3   124  ASN124      0.1181
    137  CG        27.1120    6.9450   54.6830 C.2   124  ASN124      0.2629
    138  OD1       28.0120    6.5200   53.9900 O.2   124  ASN124     -0.2716
    139  ND2       26.0340    7.5390   54.1830 N.am  124  ASN124     -0.0877
    140  N         32.1310    3.6940   58.7310 N.3   126  LEU126     -0.1245
    141  CA        32.6410    3.6800   60.0860 C.3   126  LEU126      0.1561
    142  C         33.7580    2.7080   60.2210 C.2   126  LEU126      0.2260
    143  O         33.7500    1.6150   59.5810 O.2   126  LEU126     -0.2867
    144  CB        31.5410    3.3630   61.0980 C.3   126  LEU126      0.0270
    145  CG        30.2680    4.2610   61.0180 C.3   126  LEU126      0.0019
    146  CD1       29.2060    3.7080   61.9550 C.3   126  LEU126      0.0001
    147  CD2       30.6030    5.6790   61.3570 C.3   126  LEU126      0.0001
    148  N         27.3660    2.1800   57.0220 N.3   136  ALA136     -0.1231
    149  CA        26.2710    2.5810   57.9270 C.3   136  ALA136      0.1694
    150  C         25.0740    3.1730   57.1530 C.2   136  ALA136      0.2592
    151  O         25.2560    3.8580   56.1240 O.2   136  ALA136     -0.2718
    152  CB        26.7330    3.5460   58.9580 C.3   136  ALA136      0.0304
    153  N         23.8860    3.0470   57.7410 N.am  137  ASP137     -0.1974
    154  CA        22.6440    3.5850   57.1400 C.3   137  ASP137      0.1709
    155  C         22.2480    2.9290   55.8440 C.2   137  ASP137      0.2293
    156  O         21.6330    3.5470   54.9990 O.2   137  ASP137     -0.2864
    157  CB        22.7650    5.0640   56.8970 C.3   137  ASP137      0.1436
    158  CG        22.9050    5.8190   58.1780 C.2   137  ASP137      0.3671
    159  OD1       22.3920    5.3240   59.2200 O.co2 137  ASP137     -0.2456
    160  OD2       23.5790    6.8670   58.1580 O.co2 137  ASP137     -0.2456
@<TRIPOS>BOND
     1   138   137    2
     2   130   129    2
     3   139   137   am
     4   137   136    1
     5   156   155    2
     6    19    17    1
     7   129   131   am
     8   129   128    1
     9   123   124    1
    10    18    17    1
    11   155   154    1
    12   151   150    2
    13   136   133    1
    14    17    14    1
    15   132   133    1
    16   132   125   am
    17   128   127    1
    18   135   134    2
    19   134   133    1
    20   127   124    1
    21   124   125    1
    22   157   154    1
    23   157   158    1
    24   148   149    1
    25   154   153    1
    26   150   153   am
    27   150   149    1
    28   125   126    2
    29    14    15    1
    30    14    13    1
    31    16    15    2
    32   149   152    1
    33   160   158   ar
    34   158   159   ar
    35    13    11   am
    36   140   141    1
    37   114   115    1
    38    41    42    1
    39   112   111   ar
    40   108   109    2
    41   108   107    1
    42   143   142    2
    43    11    12    2
    44    11    10    1
    45   141   142    1
    46   141   144    1
    47   116   115    1
    48   116   117    2
    49   110   111    1
    50   110   107    1
    51   115   118    1
    52   111   113   ar
    53   107   106    1
    54    47    45    1
    55    10     9    1
    56    44    43    2
    57    39    40    1
    58    39    38    1
    59    42    45    1
    60    42    43    1
    61   145   144    1
    62   145   147    1
    63   145   146    1
    64    45    46    1
    65    58    56   ar
    66    58    57   ar
    67   118   119    1
    68    56    54   ar
    69   106    99   am
    70    38    37    1
    71   100    99    2
    72   104   103    2
    73    57    55   ar
    74    99    98    1
    75   119   120    1
    76    54    53   ar
    77    86    84    1
    78    37    36    1
    79    67    65   ar
    80   103   102    1
    81   103   105   am
    82   102   101    1
    83    55    53   ar
    84    53    52    1
    85   101    98    1
    86    26    24    1
    87    98    97    1
    88   120   121    1
    89    85    84    1
    90    84    83    1
    91    36    33    1
    92    65    66   ar
    93    65    64    1
    94    83    80    1
    95    52    49    1
    96    97    89   am
    97    64    63    1
    98   121   122    1
    99    24    25    1
   100    24    21    1
   101    35    34    2
   102    33    34    1
   103    33    32    1
   104     4     3    2
   105    49    48    1
   106    49    50    1
   107    62    61    2
   108    20    21    1
   109    80    81    1
   110    80    79    1
   111    89    90    2
   112    89    88    1
   113    21    22    1
   114    59    50   am
   115    59    60    1
   116    63    60    1
   117    82    81    2
   118     7     5    1
   119    81    87   am
   120    79    70   am
   121     3     2    1
   122    87    88    1
   123    50    51    2
   124    61    60    1
   125    61    68   am
   126    31    28    1
   127    88    91    1
   128    70    71    2
   129    70    69    1
   130     5     2    1
   131     5     6    1
   132    22    23    2
   133     2     1    1
   134    30    29    2
   135    68    69    1
   136    69    72    1
   137    91    92    1
   138    29    28    1
   139     8     6    1
   140    28    27    1
   141    74    76   ar
   142    74    73   ar
   143    76    78   ar
   144    92    93   ar
   145    92    94   ar
   146    93    95   ar
   147    72    73    1
   148    73    75   ar
   149    78    77   ar
   150    75    77   ar
   151    94    96   ar
   152    95    96   ar
