@<TRIPOS>MOLECULE
tmp/2vtqA00.pdb
 167 158 0 0 0
SMALL
GASTEIGER

@<TRIPOS>ATOM
      1  N         25.9530   11.3590   74.5030 N.3     8  GLU8       -0.1245
      2  CA        26.2590   12.5640   73.7570 C.3     8  GLU8        0.1567
      3  C         25.6800   12.4780   72.3600 C.2     8  GLU8        0.2260
      4  O         25.5470   11.3790   71.7940 O.2     8  GLU8       -0.2867
      5  CB        27.7770   12.7800   73.6930 C.3     8  GLU8        0.0388
      6  CG        28.5330   11.6680   72.9790 C.3     8  GLU8        0.1160
      7  CD        30.0310   11.7390   73.2130 C.2     8  GLU8        0.3649
      8  OE1       30.7990   11.5480   72.2510 O.co2   8  GLU8       -0.2457
      9  OE2       30.4390   12.0170   74.3580 O.co2   8  GLU8       -0.2457
     10  N         25.9950   12.4910   68.6280 N.3    10  ILE10      -0.1245
     11  CA        27.1090   12.2520   67.7270 C.3    10  ILE10       0.1561
     12  C         26.9210   12.8570   66.3510 C.2    10  ILE10       0.2260
     13  O         27.8940   13.1140   65.6330 O.2    10  ILE10      -0.2867
     14  CB        27.6460   10.8070   67.7330 C.3    10  ILE10       0.0252
     15  CG1       26.5540    9.7920   67.4740 C.3    10  ILE10       0.0019
     16  CG2       28.2240   10.4460   69.0780 C.3    10  ILE10       0.0019
     17  CD1       27.0180    8.3780   67.8640 C.3    10  ILE10       0.0001
     18  N         23.6780   14.9460   63.5580 N.3    12  GLU12      -0.1245
     19  CA        22.3370   15.1740   63.0650 C.3    12  GLU12       0.1567
     20  C         22.2360   14.5240   61.7000 C.2    12  GLU12       0.2260
     21  O         23.0150   13.6180   61.3810 O.2    12  GLU12      -0.2867
     22  CB        22.0400   16.6720   62.9890 C.3    12  GLU12       0.0388
     23  CG        22.1360   17.3690   64.3430 C.3    12  GLU12       0.1160
     24  CD        21.9450   18.8600   64.2460 C.2    12  GLU12       0.3649
     25  OE1       22.6630   19.5030   63.4470 O.co2  12  GLU12      -0.2457
     26  OE2       21.0810   19.3870   64.9780 O.co2  12  GLU12      -0.2457
     27  N         21.5190   11.3510   65.7200 N.3    18  VAL18      -0.1245
     28  CA        22.2320   10.1580   66.2150 C.3    18  VAL18       0.1561
     29  C         22.9120   10.4130   67.5520 C.2    18  VAL18       0.2260
     30  O         23.6530   11.3980   67.7090 O.2    18  VAL18      -0.2867
     31  CB        23.2550    9.6190   65.1900 C.3    18  VAL18       0.0252
     32  CG1       23.8740    8.3130   65.7190 C.3    18  VAL18       0.0019
     33  CG2       22.6050    9.3850   63.8680 C.3    18  VAL18       0.0019
     34  N         24.8490    3.2400   69.2240 N.3    31  ALA31      -0.1245
     35  CA        24.4740    4.4700   68.5630 C.3    31  ALA31       0.1562
     36  C         22.9630    4.3850   68.4010 C.2    31  ALA31       0.2260
     37  O         22.4380    3.3870   67.9130 O.2    31  ALA31      -0.2867
     38  CB        25.1570    4.5670   67.1740 C.3    31  ALA31       0.0290
     39  N         19.7400    6.0570   66.8020 N.3    33  LYS33      -0.1245
     40  CA        19.2370    7.0220   65.8210 C.3    33  LYS33       0.1561
     41  C         17.7420    7.3190   66.0490 C.2    33  LYS33       0.2260
     42  O         16.9170    6.4110   66.0790 O.2    33  LYS33      -0.2867
     43  CB        19.4980    6.5290   64.4010 C.3    33  LYS33       0.0271
     44  CG        18.8700    7.3810   63.3230 C.3    33  LYS33       0.0035
     45  CD        19.2120    6.8610   61.9300 C.3    33  LYS33       0.0206
     46  CE        18.9910    7.9480   60.8760 C.3    33  LYS33       0.1093
     47  NZ        19.0500    7.4210   59.4740 N.3    33  LYS33      -0.1314
     48  N         27.2240   -2.0570   59.4700 N.3    55  VAL55      -0.1245
     49  CA        26.9750   -1.7040   60.8720 C.3    55  VAL55       0.1561
     50  C         25.7520   -2.5060   61.3350 C.2    55  VAL55       0.2260
     51  O         24.6790   -2.4370   60.7350 O.2    55  VAL55      -0.2867
     52  CB        26.7690   -0.1550   61.0940 C.3    55  VAL55       0.0252
     53  CG1       25.5120    0.3280   60.3580 C.3    55  VAL55       0.0019
     54  CG2       26.6010    0.1520   62.5950 C.3    55  VAL55       0.0019
     55  N         21.9980    0.8250   66.8770 N.3    71  PHE71      -0.1227
     56  CA        23.1150    0.2520   66.1090 C.3    71  PHE71       0.1736
     57  C         24.3050   -0.1060   66.9890 C.2    71  PHE71       0.2595
     58  O         24.5290    0.4960   68.0180 O.2    71  PHE71      -0.2718
     59  CB        23.5950    1.1920   64.9780 C.3    71  PHE71       0.0547
     60  CG        22.5840    1.4340   63.9030 C.ar   71  PHE71      -0.0202
     61  CD1       22.3840    0.5000   62.8880 C.ar   71  PHE71      -0.0042
     62  CD2       21.8660    2.6230   63.8830 C.ar   71  PHE71      -0.0042
     63  CE1       21.4820    0.7520   61.8710 C.ar   71  PHE71      -0.0003
     64  CE2       20.9350    2.8750   62.8850 C.ar   71  PHE71      -0.0003
     65  CZ        20.7630    1.9550   61.8600 C.ar   71  PHE71      -0.0000
     66  N         25.1270   -1.0450   66.5340 N.am   72  GLU72      -0.1965
     67  CA        26.4370   -1.2320   67.1750 C.3    72  GLU72       0.1733
     68  C         27.2200    0.1070   67.0200 C.2    72  GLU72       0.2616
     69  O         27.1010    0.8270   66.0180 O.2    72  GLU72      -0.2715
     70  CB        27.1950   -2.4080   66.5170 C.3    72  GLU72       0.0429
     71  CG        28.0190   -2.0120   65.3580 C.3    72  GLU72       0.1163
     72  CD        28.8140   -3.1340   64.6980 C.2    72  GLU72       0.3649
     73  OE1       29.9620   -3.3890   65.0810 O.co2  72  GLU72      -0.2457
     74  OE2       28.4320   -3.5360   63.6030 O.co2  72  GLU72      -0.2457
     75  N         27.9450    0.4690   68.0550 N.am   73  PHE73      -0.1960
     76  CA        28.6850    1.7210   68.1030 C.3    73  PHE73       0.1771
     77  C         30.0690    1.4990   67.4990 C.2    73  PHE73       0.2619
     78  O         30.7240    0.5050   67.8130 O.2    73  PHE73      -0.2715
     79  CB        28.8760    2.1170   69.5730 C.3    73  PHE73       0.0574
     80  CG        29.6070    3.4170   69.7550 C.ar   73  PHE73      -0.0200
     81  CD1       30.9750    3.4240   70.0230 C.ar   73  PHE73      -0.0042
     82  CD2       28.9440    4.6330   69.5810 C.ar   73  PHE73      -0.0042
     83  CE1       31.6490    4.6260   70.1360 C.ar   73  PHE73      -0.0003
     84  CE2       29.6090    5.8170   69.6800 C.ar   73  PHE73      -0.0003
     85  CZ        30.9620    5.8230   69.9660 C.ar   73  PHE73      -0.0000
     86  N         30.5060    2.4330   66.6550 N.am   74  LEU74      -0.1963
     87  CA        31.9040    2.4570   66.2350 C.3    74  LEU74       0.1728
     88  C         32.4830    3.8170   66.5620 C.2    74  LEU74       0.2616
     89  O         31.8000    4.8040   66.4460 O.2    74  LEU74      -0.2715
     90  CB        32.0790    2.1220   64.7500 C.3    74  LEU74       0.0311
     91  CG        31.9540    0.6380   64.4020 C.3    74  LEU74       0.0022
     92  CD1       30.4720    0.2530   64.2700 C.3    74  LEU74       0.0001
     93  CD2       32.7200    0.3430   63.0860 C.3    74  LEU74       0.0001
     94  N         33.7860    3.8760   66.8140 N.am   75  HIS75      -0.1959
     95  CA        34.3660    5.0830   67.3590 C.3    75  HIS75       0.1787
     96  C         34.6710    6.1790   66.3870 C.2    75  HIS75       0.2620
     97  O         34.6760    7.3320   66.7680 O.2    75  HIS75      -0.2715
     98  CB        35.5690    4.7880   68.2470 C.3    75  HIS75       0.0785
     99  CG        35.2080    4.1080   69.5300 C.ar   75  HIS75       0.0821
    100  ND1       34.9460    2.7530   69.6060 N.ar   75  HIS75      -0.2267
    101  CD2       35.0280    4.6050   70.7810 C.ar   75  HIS75       0.1154
    102  CE1       34.6490    2.4390   70.8590 C.ar   75  HIS75       0.1986
    103  NE2       34.7290    3.5390   71.5980 N.ar   75  HIS75      -0.2212
    104  N         34.8240    5.8420   65.1110 N.am   76  GLN76      -0.1963
    105  CA        35.2880    6.8220   64.1330 C.3    76  GLN76       0.1733
    106  C         34.5800    6.6040   62.7830 C.2    76  GLN76       0.2616
    107  O         34.0930    5.5090   62.5050 O.2    76  GLN76      -0.2715
    108  CB        36.8150    6.7200   64.0210 C.3    76  GLN76       0.0408
    109  CG        37.4490    7.6670   62.9660 C.3    76  GLN76       0.0908
    110  CD        37.3200    9.1180   63.3470 C.2    76  GLN76       0.2608
    111  OE1       36.2160    9.6170   63.6010 O.2    76  GLN76      -0.2717
    112  NE2       38.4500    9.8110   63.3960 N.am   76  GLN76      -0.0878
    113  N         34.4360    7.6660   61.9980 N.am   77  ASP77      -0.1971
    114  CA        33.9840    7.5570   60.5980 C.3    77  ASP77       0.1709
    115  C         35.1010    7.9830   59.6280 C.2    77  ASP77       0.2293
    116  O         36.1210    8.5880   60.0340 O.2    77  ASP77      -0.2864
    117  CB        32.7100    8.3770   60.3410 C.3    77  ASP77       0.1436
    118  CG        32.9310    9.9100   60.4980 C.2    77  ASP77       0.3671
    119  OD1       33.6540   10.5430   59.6890 O.co2  77  ASP77      -0.2456
    120  OD2       32.3470   10.4700   61.4280 O.co2  77  ASP77      -0.2456
    121  N         36.0880   11.9020   59.1570 N.3    80  LYS80      -0.1245
    122  CA        37.0220   12.3990   60.1640 C.3    80  LYS80       0.1561
    123  C         38.4160   11.7880   60.0610 C.2    80  LYS80       0.2260
    124  O         39.4040   12.4980   60.2360 O.2    80  LYS80      -0.2867
    125  CB        36.4550   12.2100   61.5770 C.3    80  LYS80       0.0271
    126  CG        35.0550   12.7900   61.7400 C.3    80  LYS80       0.0035
    127  CD        34.5850   12.7150   63.2000 C.3    80  LYS80       0.0206
    128  CE        33.2640   13.4440   63.3930 C.3    80  LYS80       0.1093
    129  NZ        32.2610   12.9830   62.3960 N.3    80  LYS80      -0.1314
    130  N         31.2360   10.0790   55.5400 N.3   122  GLN122     -0.1231
    131  CA        30.5900   10.2560   56.8430 C.3   122  GLN122      0.1698
    132  C         29.8140    8.9940   57.3020 C.2   122  GLN122      0.2592
    133  O         29.7160    8.7240   58.4930 O.2   122  GLN122     -0.2718
    134  CB        29.5800   11.4290   56.8230 C.3   122  GLN122      0.0381
    135  CG        29.7700   12.5610   55.8250 C.3   122  GLN122      0.0905
    136  CD        28.6010   13.5630   55.9090 C.2   122  GLN122      0.2608
    137  OE1       27.6250   13.3250   56.6340 O.2   122  GLN122     -0.2717
    138  NE2       28.7110   14.6470   55.1660 N.am  122  GLN122     -0.0878
    139  N         29.2050    8.2720   56.3720 N.am  123  ASN123     -0.1974
    140  CA        28.5040    7.0210   56.7290 C.3   123  ASN123      0.1688
    141  C         29.2900    5.7080   56.5960 C.2   123  ASN123      0.2292
    142  O         28.7090    4.6030   56.5940 O.2   123  ASN123     -0.2864
    143  CB        27.0800    6.9460   56.1820 C.3   123  ASN123      0.1181
    144  CG        27.0150    7.0810   54.6720 C.2   123  ASN123      0.2629
    145  OD1       27.7730    6.4260   53.9530 O.2   123  ASN123     -0.2716
    146  ND2       26.0010    7.8110   54.1790 N.am  123  ASN123     -0.0877
    147  N         32.0100    3.6610   58.7570 N.3   125  LEU125     -0.1245
    148  CA        32.4980    3.6980   60.1310 C.3   125  LEU125      0.1561
    149  C         33.6620    2.7530   60.3010 C.2   125  LEU125      0.2260
    150  O         33.6430    1.6750   59.7570 O.2   125  LEU125     -0.2867
    151  CB        31.3720    3.3020   61.0940 C.3   125  LEU125      0.0270
    152  CG        30.0680    4.1090   60.9040 C.3   125  LEU125      0.0019
    153  CD1       29.0280    3.5670   61.8760 C.3   125  LEU125      0.0001
    154  CD2       30.3740    5.5540   61.2430 C.3   125  LEU125      0.0001
    155  N         27.1050    2.2050   56.8760 N.3   135  ALA135     -0.1231
    156  CA        26.0210    2.6750   57.7820 C.3   135  ALA135      0.1694
    157  C         24.9900    3.5590   57.0440 C.2   135  ALA135      0.2592
    158  O         25.2530    4.0710   55.9600 O.2   135  ALA135     -0.2718
    159  CB        26.5630    3.4010   58.9930 C.3   135  ALA135      0.0304
    160  N         23.8660    3.8220   57.6980 N.am  136  ASP136     -0.1974
    161  CA        22.8400    4.7450   57.1940 C.3   136  ASP136      0.1709
    162  C         22.2960    4.3310   55.8530 C.2   136  ASP136      0.2293
    163  O         22.2640    5.1280   54.9010 O.2   136  ASP136     -0.2864
    164  CB        23.3600    6.1740   57.0920 C.3   136  ASP136      0.1436
    165  CG        22.2420    7.2010   57.2420 C.2   136  ASP136      0.3671
    166  OD1       21.2680    6.8960   57.9570 O.co2 136  ASP136     -0.2456
    167  OD2       22.3880    8.3220   56.7260 O.co2 136  ASP136     -0.2456
@<TRIPOS>BOND
     1   145   144    2
     2   146   144   am
     3   144   143    1
     4   163   162    2
     5   138   136   am
     6   130   131    1
     7   135   136    1
     8   135   134    1
     9   162   161    1
    10   136   137    2
    11   158   157    2
    12   143   140    1
    13   139   140    1
    14   139   132   am
    15   142   141    2
    16   141   140    1
    17   167   165   ar
    18   134   131    1
    19   131   132    1
    20   155   156    1
    21   157   160   am
    22   157   156    1
    23   164   161    1
    24   164   165    1
    25   161   160    1
    26   165   166   ar
    27   132   133    2
    28   156   159    1
    29   147   148    1
    30   121   122    1
    31    48    49    1
    32    47    46    1
    33   115   116    2
    34   115   114    1
    35   119   118   ar
    36   150   149    2
    37   123   122    1
    38   123   124    2
    39   148   149    1
    40   148   151    1
    41   122   125    1
    42   117   118    1
    43   117   114    1
    44    53    52    1
    45   118   120   ar
    46   114   113    1
    47    51    50    2
    48    49    52    1
    49    49    50    1
    50    46    45    1
    51   152   151    1
    52   152   154    1
    53   152   153    1
    54    52    54    1
    55    21    20    2
    56   125   126    1
    57    20    19    1
    58   126   127    1
    59    65    63   ar
    60    65    64   ar
    61    63    61   ar
    62    45    44    1
    63   113   106   am
    64   129   128    1
    65   107   106    2
    66   106   105    1
    67    64    62   ar
    68    61    60   ar
    69   109   110    1
    70   109   108    1
    71    22    19    1
    72    22    23    1
    73    19    18    1
    74    93    91    1
    75   127   128    1
    76    44    43    1
    77   110   112   am
    78   110   111    2
    79    25    24   ar
    80    74    72   ar
    81    33    31    1
    82    62    60   ar
    83    60    59    1
    84   108   105    1
    85   105   104    1
    86    24    23    1
    87    24    26   ar
    88    92    91    1
    89    43    40    1
    90    91    90    1
    91    72    73   ar
    92    72    71    1
    93    90    87    1
    94    59    56    1
    95   104    96   am
    96    31    32    1
    97    31    28    1
    98    71    70    1
    99    13    12    2
   100    27    28    1
   101    40    41    1
   102    40    39    1
   103    69    68    2
   104    41    42    2
   105    56    55    1
   106    56    57    1
   107    28    29    1
   108    87    88    1
   109    87    86    1
   110    12    11    1
   111    96    97    2
   112    96    95    1
   113    89    88    2
   114    70    67    1
   115    66    57   am
   116    66    67    1
   117    88    94   am
   118    86    77   am
   119    94    95    1
   120    57    58    2
   121    68    67    1
   122    68    75   am
   123    38    35    1
   124    95    98    1
   125    15    14    1
   126    15    17    1
   127    77    78    2
   128    77    76    1
   129    29    30    2
   130    11    14    1
   131    11    10    1
   132    14    16    1
   133    37    36    2
   134    75    76    1
   135    76    79    1
   136    98    99    1
   137    36    35    1
   138    35    34    1
   139    99   100   ar
   140    99   101   ar
   141    79    80    1
   142    82    84   ar
   143    82    80   ar
   144   100   102   ar
   145    84    85   ar
   146    80    81   ar
   147    85    83   ar
   148    81    83   ar
   149   101   103   ar
   150   102   103   ar
   151     4     3    2
   152     8     7   ar
   153     3     2    1
   154     6     7    1
   155     6     5    1
   156     7     9   ar
   157     5     2    1
   158     2     1    1
