@<TRIPOS>MOLECULE
tmp/2vtrA00.pdb
 144 139 0 0 0
SMALL
GASTEIGER

@<TRIPOS>ATOM
      1  N         26.2580   12.4350   67.8960 N.3    10  ILE10      -0.1231
      2  CA        27.3370   11.9720   67.0300 C.3    10  ILE10       0.1692
      3  C         27.0740   12.1150   65.5590 C.2    10  ILE10       0.2593
      4  O         27.7190   11.4510   64.7600 O.2    10  ILE10      -0.2718
      5  CB        27.6890   10.5120   67.2720 C.3    10  ILE10       0.0266
      6  CG1       26.4420    9.6430   67.3690 C.3    10  ILE10       0.0019
      7  CG2       28.6220   10.3740   68.4250 C.3    10  ILE10       0.0020
      8  CD1       26.7570    8.1930   67.6500 C.3    10  ILE10       0.0001
      9  N         26.0700   12.8820   65.1820 N.am   11  GLY11      -0.1942
     10  CA        25.6870   12.8530   63.7920 C.3    11  GLY11       0.2014
     11  C         24.3680   13.5530   63.6400 C.2    11  GLY11       0.2638
     12  O         23.5680   13.6300   64.5700 O.2    11  GLY11      -0.2714
     13  N         24.1870   14.1520   62.4820 N.am   12  GLU12      -0.1977
     14  CA        22.9030   14.7140   62.1500 C.3    12  GLU12       0.1602
     15  C         22.5640   14.1080   60.8250 C.2    12  GLU12       0.2287
     16  O         22.9680   14.6050   59.7790 O.2    12  GLU12      -0.2864
     17  CB        22.9730   16.2360   62.1070 C.3    12  GLU12       0.0415
     18  CG        23.1540   16.8410   63.5010 C.3    12  GLU12       0.1163
     19  CD        22.8320   18.3250   63.5620 C.2    12  GLU12       0.3649
     20  OE1       23.5130   19.1170   62.8650 O.co2  12  GLU12      -0.2457
     21  OE2       21.9370   18.6970   64.3570 O.co2  12  GLU12      -0.2457
     22  N         21.6980   11.5430   65.3030 N.3    18  VAL18      -0.1245
     23  CA        22.3240   10.2890   65.7220 C.3    18  VAL18       0.1561
     24  C         22.9940   10.5220   67.0670 C.2    18  VAL18       0.2260
     25  O         23.7640   11.4660   67.2520 O.2    18  VAL18      -0.2867
     26  CB        23.3340    9.7440   64.6840 C.3    18  VAL18       0.0252
     27  CG1       23.8030    8.3030   65.0560 C.3    18  VAL18       0.0019
     28  CG2       22.7390    9.7630   63.3280 C.3    18  VAL18       0.0019
     29  N         24.7960    3.2060   68.5780 N.3    31  ALA31      -0.1245
     30  CA        24.3790    4.4120   67.8650 C.3    31  ALA31       0.1562
     31  C         22.8350    4.4240   67.8010 C.2    31  ALA31       0.2260
     32  O         22.2390    3.5250   67.2320 O.2    31  ALA31      -0.2867
     33  CB        24.9720    4.4010   66.4470 C.3    31  ALA31       0.0290
     34  N         27.1640   -1.9440   58.9520 N.3    56  VAL56      -0.1245
     35  CA        26.9470   -1.5790   60.3630 C.3    56  VAL56       0.1561
     36  C         25.7250   -2.3780   60.8370 C.2    56  VAL56       0.2260
     37  O         24.6580   -2.4060   60.1790 O.2    56  VAL56      -0.2867
     38  CB        26.7580   -0.0360   60.6300 C.3    56  VAL56       0.0252
     39  CG1       26.4470    0.1970   62.1200 C.3    56  VAL56       0.0019
     40  CG2       28.0280    0.7820   60.2450 C.3    56  VAL56       0.0019
     41  N         21.8850    0.9520   66.3010 N.3    72  PHE72      -0.1227
     42  CA        22.9580    0.3900   65.4820 C.3    72  PHE72       0.1736
     43  C         24.1810    0.0270   66.2890 C.2    72  PHE72       0.2595
     44  O         24.4640    0.6670   67.3030 O.2    72  PHE72      -0.2718
     45  CB        23.3350    1.3390   64.3170 C.3    72  PHE72       0.0547
     46  CG        22.2750    1.4450   63.2440 C.ar   72  PHE72      -0.0202
     47  CD1       22.2050    0.5100   62.2190 C.ar   72  PHE72      -0.0042
     48  CD2       21.3700    2.4830   63.2510 C.ar   72  PHE72      -0.0042
     49  CE1       21.2710    0.6260   61.2030 C.ar   72  PHE72      -0.0003
     50  CE2       20.3990    2.5890   62.2460 C.ar   72  PHE72      -0.0003
     51  CZ        20.3800    1.6590   61.2050 C.ar   72  PHE72      -0.0000
     52  N         24.9740   -0.9120   65.7760 N.am   73  GLU73      -0.1965
     53  CA        26.3360   -1.1150   66.2940 C.3    73  GLU73       0.1733
     54  C         27.0910    0.2310   66.2180 C.2    73  GLU73       0.2616
     55  O         26.9150    1.0020   65.2740 O.2    73  GLU73      -0.2715
     56  CB        27.0400   -2.2210   65.4890 C.3    73  GLU73       0.0429
     57  CG        28.3490   -1.8490   64.8670 C.3    73  GLU73       0.1163
     58  CD        29.0440   -3.0020   64.1330 C.2    73  GLU73       0.3649
     59  OE1       30.1650   -3.3610   64.5340 O.co2  73  GLU73      -0.2457
     60  OE2       28.4900   -3.5240   63.1560 O.co2  73  GLU73      -0.2457
     61  N         27.8280    0.5640   67.2720 N.am   74  PHE74      -0.1960
     62  CA        28.5720    1.8350   67.3130 C.3    74  PHE74       0.1771
     63  C         29.9450    1.6730   66.6690 C.2    74  PHE74       0.2619
     64  O         30.6720    0.7220   66.9940 O.2    74  PHE74      -0.2715
     65  CB        28.7780    2.2690   68.7810 C.3    74  PHE74       0.0574
     66  CG        29.5520    3.5620   68.9200 C.ar   74  PHE74      -0.0200
     67  CD1       30.8930    3.5510   69.2370 C.ar   74  PHE74      -0.0042
     68  CD2       28.9170    4.7860   68.7350 C.ar   74  PHE74      -0.0042
     69  CE1       31.6120    4.7390   69.2850 C.ar   74  PHE74      -0.0003
     70  CE2       29.6080    5.9760   68.8190 C.ar   74  PHE74      -0.0003
     71  CZ        30.9330    5.9640   69.1210 C.ar   74  PHE74      -0.0000
     72  N         30.3840    2.6930   65.9270 N.am   75  LEU75      -0.1963
     73  CA        31.7860    2.7570   65.5100 C.3    75  LEU75       0.1728
     74  C         32.3960    4.1000   65.8380 C.2    75  LEU75       0.2616
     75  O         31.6990    5.1120   65.8280 O.2    75  LEU75      -0.2715
     76  CB        31.9360    2.4500   64.0180 C.3    75  LEU75       0.0311
     77  CG        31.7180    0.9680   63.7370 C.3    75  LEU75       0.0022
     78  CD1       30.2250    0.6480   63.4820 C.3    75  LEU75       0.0001
     79  CD2       32.6840    0.4200   62.6660 C.3    75  LEU75       0.0001
     80  N         33.6960    4.1040   66.1390 N.am   76  HIS76      -0.1959
     81  CA        34.3280    5.2600   66.7720 C.3    76  HIS76       0.1787
     82  C         34.7700    6.3730   65.8550 C.2    76  HIS76       0.2620
     83  O         35.1450    7.4460   66.3180 O.2    76  HIS76      -0.2715
     84  CB        35.5090    4.8250   67.6200 C.3    76  HIS76       0.0785
     85  CG        35.1150    4.0520   68.8340 C.ar   76  HIS76       0.0821
     86  ND1       34.9770    4.6490   70.0720 N.ar   76  HIS76      -0.2267
     87  CD2       34.7490    2.7560   68.9920 C.ar   76  HIS76       0.1154
     88  CE1       34.5860    3.7390   70.9450 C.ar   76  HIS76       0.1986
     89  NE2       34.4880    2.5760   70.3260 N.ar   76  HIS76      -0.2212
     90  N         34.8760    6.0890   64.5630 N.am   77  GLN77      -0.1963
     91  CA        35.3010    7.1200   63.6280 C.3    77  GLN77       0.1733
     92  C         34.7120    6.8790   62.2210 C.2    77  GLN77       0.2616
     93  O         34.3610    5.7660   61.9040 O.2    77  GLN77      -0.2715
     94  CB        36.8310    7.1550   63.5550 C.3    77  GLN77       0.0408
     95  CG        37.3250    8.2880   62.6600 C.3    77  GLN77       0.0908
     96  CD        38.7050    8.7510   63.0280 C.2    77  GLN77       0.2608
     97  OE1       39.1630    9.7850   62.5590 O.2    77  GLN77      -0.2717
     98  NE2       39.3640    8.0070   63.9090 N.am   77  GLN77      -0.0878
     99  N         34.5090    7.9390   61.4470 N.am   78  ASP78      -0.1971
    100  CA        34.1060    7.8120   60.0370 C.3    78  ASP78       0.1709
    101  C         35.2330    8.2510   59.0940 C.2    78  ASP78       0.2293
    102  O         36.2740    8.8210   59.5110 O.2    78  ASP78      -0.2864
    103  CB        32.8130    8.5990   59.7250 C.3    78  ASP78       0.1436
    104  CG        32.9750   10.1010   59.8990 C.2    78  ASP78       0.3671
    105  OD1       33.8980   10.6740   59.3000 O.co2  78  ASP78      -0.2456
    106  OD2       32.2220   10.7030   60.6960 O.co2  78  ASP78      -0.2456
    107  N         31.1410   10.1950   55.1910 N.3   123  GLN123     -0.1231
    108  CA        30.4440   10.3240   56.4610 C.3   123  GLN123      0.1698
    109  C         29.7110    9.0660   56.9290 C.2   123  GLN123      0.2592
    110  O         29.5340    8.8810   58.1210 O.2   123  GLN123     -0.2718
    111  CB        29.4340   11.4690   56.4190 C.3   123  GLN123      0.0381
    112  CG        30.0110   12.8120   55.9910 C.3   123  GLN123      0.0905
    113  CD        29.7410   13.1200   54.5190 C.2   123  GLN123      0.2608
    114  OE1       30.5270   12.7610   53.6340 O.2   123  GLN123     -0.2717
    115  NE2       28.6250   13.7960   54.2570 N.am  123  GLN123     -0.0878
    116  N         29.1810    8.2650   56.0130 N.am  124  ASN124     -0.1974
    117  CA        28.4600    7.0660   56.4690 C.3   124  ASN124      0.1688
    118  C         29.2450    5.7770   56.2340 C.2   124  ASN124      0.2292
    119  O         28.6950    4.6820   56.2110 O.2   124  ASN124     -0.2864
    120  CB        27.0070    7.0140   55.9910 C.3   124  ASN124      0.1181
    121  CG        26.8870    7.0360   54.4910 C.2   124  ASN124      0.2629
    122  OD1       27.7430    6.4850   53.7860 O.2   124  ASN124     -0.2716
    123  ND2       25.7900    7.6300   53.9860 N.am  124  ASN124     -0.0877
    124  N         32.0910    3.8070   58.2300 N.3   126  LEU126     -0.1245
    125  CA        32.5660    3.8380   59.6000 C.3   126  LEU126      0.1561
    126  C         33.7020    2.8640   59.8360 C.2   126  LEU126      0.2260
    127  O         33.6890    1.7730   59.3010 O.2   126  LEU126     -0.2867
    128  CB        31.3860    3.5870   60.5510 C.3   126  LEU126      0.0270
    129  CG        30.2620    4.6290   60.3620 C.3   126  LEU126      0.0019
    130  CD1       29.0160    4.2200   61.1150 C.3   126  LEU126      0.0001
    131  CD2       30.6950    5.9950   60.8000 C.3   126  LEU126      0.0001
    132  N         27.2510    2.4130   56.7260 N.3   136  ALA136     -0.1231
    133  CA        26.1440    2.7630   57.6260 C.3   136  ALA136      0.1694
    134  C         24.9690    3.3130   56.7870 C.2   136  ALA136      0.2592
    135  O         25.1920    3.7650   55.6800 O.2   136  ALA136     -0.2718
    136  CB        26.5880    3.7920   58.6250 C.3   136  ALA136      0.0304
    137  N         23.7370    3.2300   57.3040 N.am  137  ASP137     -0.1974
    138  CA        22.5130    3.6890   56.5990 C.3   137  ASP137      0.1709
    139  C         22.0860    2.8690   55.3880 C.2   137  ASP137      0.2293
    140  O         21.2570    3.3040   54.5910 O.2   137  ASP137     -0.2864
    141  CB        22.6200    5.1480   56.2050 C.3   137  ASP137      0.1436
    142  CG        22.6640    6.0580   57.3970 C.2   137  ASP137      0.3671
    143  OD1       22.4860    5.5530   58.5340 O.co2 137  ASP137     -0.2456
    144  OD2       22.8880    7.2710   57.2070 O.co2 137  ASP137     -0.2456
@<TRIPOS>BOND
     1   114   113    2
     2   122   121    2
     3   123   121   am
     4   115   113   am
     5   121   120    1
     6   113   112    1
     7   140   139    2
     8   107   108    1
     9   139   138    1
    10   135   134    2
    11   112   111    1
    12   120   117    1
    13   116   117    1
    14   116   109   am
    15   141   138    1
    16   141   142    1
    17   119   118    2
    18   118   117    1
    19   111   108    1
    20   108   109    1
    21   138   137    1
    22   132   133    1
    23   134   137   am
    24   134   133    1
    25   109   110    2
    26   144   142   ar
    27   142   143   ar
    28   133   136    1
    29   124   125    1
    30    34    35    1
    31   101   102    2
    32   101   100    1
    33   105   104   ar
    34   127   126    2
    35   125   126    1
    36   125   128    1
    37   103   104    1
    38   103   100    1
    39    16    15    2
    40   104   106   ar
    41   100    99    1
    42    37    36    2
    43    40    38    1
    44   129   128    1
    45   129   131    1
    46   129   130    1
    47    35    38    1
    48    35    36    1
    49    38    39    1
    50    15    14    1
    51    49    51   ar
    52    49    47   ar
    53    51    50   ar
    54    99    92   am
    55    93    92    2
    56    17    14    1
    57    17    18    1
    58    14    13    1
    59    47    46   ar
    60    92    91    1
    61    50    48   ar
    62    13    11   am
    63    97    96    2
    64    95    96    1
    65    95    94    1
    66    79    77    1
    67    20    19   ar
    68    96    98   am
    69    60    58   ar
    70    46    48   ar
    71    46    45    1
    72    28    26    1
    73    78    77    1
    74    18    19    1
    75    94    91    1
    76    19    21   ar
    77    91    90    1
    78    11    10    1
    79    11    12    2
    80    77    76    1
    81    10     9    1
    82    76    73    1
    83    58    59   ar
    84    58    57    1
    85    45    42    1
    86    90    82   am
    87    26    27    1
    88    26    23    1
    89     4     3    2
    90    57    56    1
    91     9     3   am
    92    55    54    2
    93    22    23    1
    94    42    43    1
    95    42    41    1
    96    56    53    1
    97    73    74    1
    98    73    72    1
    99     3     2    1
   100    23    24    1
   101    52    43   am
   102    52    53    1
   103    75    74    2
   104    74    80   am
   105    82    83    2
   106    82    81    1
   107    72    63   am
   108    80    81    1
   109    54    53    1
   110    54    61   am
   111    43    44    2
   112    33    30    1
   113    63    64    2
   114    63    62    1
   115    81    84    1
   116     2     5    1
   117     2     1    1
   118    24    25    2
   119    32    31    2
   120    61    62    1
   121     5     6    1
   122     5     7    1
   123    62    65    1
   124     6     8    1
   125    84    85    1
   126    31    30    1
   127    30    29    1
   128    68    70   ar
   129    68    66   ar
   130    65    66    1
   131    70    71   ar
   132    85    87   ar
   133    85    86   ar
   134    66    67   ar
   135    87    89   ar
   136    71    69   ar
   137    67    69   ar
   138    86    88   ar
   139    89    88   ar
