@<TRIPOS>MOLECULE
tmp/2vtsA00.pdb
 173 166 0 0 0
SMALL
GASTEIGER

@<TRIPOS>ATOM
      1  N         26.2600   12.2160   69.2250 N.3    10  ILE10      -0.1231
      2  CA        27.3910   11.8090   68.3740 C.3    10  ILE10       0.1692
      3  C         27.2590   12.1730   66.9150 C.2    10  ILE10       0.2593
      4  O         28.0880   11.7370   66.1030 O.2    10  ILE10      -0.2718
      5  CB        27.8470   10.3150   68.5700 C.3    10  ILE10       0.0266
      6  CG1       26.9440    9.3220   67.8390 C.3    10  ILE10       0.0019
      7  CG2       28.0310    9.9760   70.0290 C.3    10  ILE10       0.0020
      8  CD1       27.1650    7.8820   68.2640 C.3    10  ILE10       0.0001
      9  N         26.2650   13.0180   66.6010 N.am   11  GLY11      -0.1942
     10  CA        26.0510   13.5610   65.2650 C.3    11  GLY11       0.2014
     11  C         24.6000   13.8700   64.9210 C.2    11  GLY11       0.2639
     12  O         23.6700   13.2810   65.4820 O.2    11  GLY11      -0.2714
     13  N         24.4170   14.8170   63.9990 N.am   12  GLU12      -0.1963
     14  CA        23.1250   15.0820   63.3650 C.3    12  GLU12       0.1733
     15  C         23.0230   14.2020   62.1270 C.2    12  GLU12       0.2617
     16  O         23.9930   14.0470   61.3900 O.2    12  GLU12      -0.2715
     17  CB        23.0260   16.5570   62.9360 C.3    12  GLU12       0.0429
     18  CG        23.6240   17.6090   63.9090 C.3    12  GLU12       0.1163
     19  CD        22.6370   18.0860   64.9780 C.2    12  GLU12       0.3649
     20  OE1       22.2510   17.2880   65.8560 O.co2  12  GLU12      -0.2457
     21  OE2       22.2730   19.2770   64.9700 O.co2  12  GLU12      -0.2457
     22  N         21.8450   13.6440   61.8730 N.am   13  GLY13      -0.1940
     23  CA        21.6070   12.8950   60.6490 C.3    13  GLY13       0.2014
     24  C         20.5790   13.5060   59.7020 C.2    13  GLY13       0.2639
     25  O         20.0010   14.5730   59.9590 O.2    13  GLY13      -0.2714
     26  N         20.3550   12.8220   58.5860 N.am   14  THR14      -0.1950
     27  CA        19.2540   13.1770   57.6910 C.3    14  THR14       0.1897
     28  C         17.9230   13.0150   58.4270 C.2    14  THR14       0.2313
     29  O         17.1090   13.9390   58.4670 O.2    14  THR14      -0.2863
     30  CB        19.2620   12.3100   56.3950 C.3    14  THR14       0.1794
     31  OG1       20.4720   12.5280   55.6570 O.3    14  THR14      -0.2208
     32  CG2       18.0770   12.6690   55.5110 C.3    14  THR14       0.0378
     33  N         21.7710   11.5090   66.4080 N.3    18  VAL18      -0.1245
     34  CA        22.4280   10.2610   66.8200 C.3    18  VAL18       0.1561
     35  C         23.1380   10.4560   68.1360 C.2    18  VAL18       0.2260
     36  O         23.9550   11.3840   68.3280 O.2    18  VAL18      -0.2867
     37  CB        23.4210    9.7480   65.7460 C.3    18  VAL18       0.0252
     38  CG1       23.8800    8.3080   66.0800 C.3    18  VAL18       0.0019
     39  CG2       22.7780    9.8060   64.3870 C.3    18  VAL18       0.0019
     40  N         24.8850    3.1770   69.4610 N.3    31  ALA31      -0.1245
     41  CA        24.5320    4.4080   68.7340 C.3    31  ALA31       0.1562
     42  C         23.0020    4.2990   68.5810 C.2    31  ALA31       0.2260
     43  O         22.4410    3.2540   68.1330 O.2    31  ALA31      -0.2867
     44  CB        25.1820    4.3680   67.3460 C.3    31  ALA31       0.0290
     45  N         19.8140    6.1370   67.0940 N.3    33  LYS33      -0.1245
     46  CA        19.2500    7.1400   66.1770 C.3    33  LYS33       0.1561
     47  C         17.7570    7.3970   66.4090 C.2    33  LYS33       0.2260
     48  O         16.9880    6.4630   66.5640 O.2    33  LYS33      -0.2867
     49  CB        19.5740    6.7940   64.7180 C.3    33  LYS33       0.0271
     50  CG        21.0540    6.4610   64.5780 C.3    33  LYS33       0.0035
     51  CD        21.5870    6.4450   63.1550 C.3    33  LYS33       0.0206
     52  CE        23.1320    6.4590   63.2090 C.3    33  LYS33       0.1093
     53  NZ        23.8220    6.1930   61.9230 N.3    33  LYS33      -0.1314
     54  N         27.4020   -1.9420   59.6730 N.3    56  VAL56      -0.1245
     55  CA        27.0780   -1.6020   61.0620 C.3    56  VAL56       0.1561
     56  C         25.8640   -2.4120   61.5580 C.2    56  VAL56       0.2260
     57  O         24.8330   -2.4400   60.9010 O.2    56  VAL56      -0.2867
     58  CB        26.8640   -0.0580   61.2770 C.3    56  VAL56       0.0252
     59  CG1       26.6000    0.2140   62.7760 C.3    56  VAL56       0.0019
     60  CG2       28.1330    0.6970   60.8970 C.3    56  VAL56       0.0019
     61  N         22.0430    0.7740   66.9400 N.3    72  PHE72      -0.1227
     62  CA        23.1390    0.1540   66.1660 C.3    72  PHE72       0.1736
     63  C         24.3550   -0.1770   67.0560 C.2    72  PHE72       0.2595
     64  O         24.5840    0.4630   68.0900 O.2    72  PHE72      -0.2718
     65  CB        23.5930    1.1260   65.0250 C.3    72  PHE72       0.0547
     66  CG        22.5510    1.3370   63.9550 C.ar   72  PHE72      -0.0202
     67  CD1       22.3930    0.4070   62.9230 C.ar   72  PHE72      -0.0042
     68  CD2       21.7130    2.4630   63.9870 C.ar   72  PHE72      -0.0042
     69  CE1       21.3910    0.5710   61.9610 C.ar   72  PHE72      -0.0003
     70  CE2       20.7370    2.6670   63.0130 C.ar   72  PHE72      -0.0003
     71  CZ        20.5750    1.7250   61.9910 C.ar   72  PHE72      -0.0000
     72  N         25.2140   -1.0870   66.5950 N.am   73  GLU73      -0.1965
     73  CA        26.5460   -1.1890   67.1940 C.3    73  GLU73       0.1733
     74  C         27.2610    0.1730   67.1440 C.2    73  GLU73       0.2616
     75  O         27.1060    0.9430   66.1920 O.2    73  GLU73      -0.2715
     76  CB        27.4000   -2.2900   66.5370 C.3    73  GLU73       0.0429
     77  CG        27.8170   -2.0530   65.1360 C.3    73  GLU73       0.1163
     78  CD        28.8670   -3.0410   64.6550 C.2    73  GLU73       0.3649
     79  OE1       29.9990   -3.1180   65.1870 O.co2  73  GLU73      -0.2457
     80  OE2       28.5600   -3.7670   63.7330 O.co2  73  GLU73      -0.2457
     81  N         28.0360    0.4630   68.1680 N.am   74  PHE74      -0.1960
     82  CA        28.7560    1.7510   68.2460 C.3    74  PHE74       0.1771
     83  C         30.1610    1.5650   67.6630 C.2    74  PHE74       0.2619
     84  O         30.7380    0.5120   67.8710 O.2    74  PHE74      -0.2715
     85  CB        28.9430    2.1340   69.7120 C.3    74  PHE74       0.0574
     86  CG        29.6690    3.4290   69.8950 C.ar   74  PHE74      -0.0200
     87  CD1       29.0190    4.6330   69.6240 C.ar   74  PHE74      -0.0042
     88  CD2       31.0160    3.4560   70.2650 C.ar   74  PHE74      -0.0042
     89  CE1       29.6600    5.8410   69.7860 C.ar   74  PHE74      -0.0003
     90  CE2       31.6750    4.6930   70.4410 C.ar   74  PHE74      -0.0003
     91  CZ        30.9760    5.8890   70.1790 C.ar   74  PHE74      -0.0000
     92  N         30.6470    2.5340   66.8740 N.am   75  LEU75      -0.1963
     93  CA        32.0340    2.5610   66.4070 C.3    75  LEU75       0.1728
     94  C         32.5830    3.9330   66.6940 C.2    75  LEU75       0.2616
     95  O         31.8160    4.8990   66.7210 O.2    75  LEU75      -0.2715
     96  CB        32.1530    2.2680   64.8940 C.3    75  LEU75       0.0311
     97  CG        31.9530    0.8250   64.4490 C.3    75  LEU75       0.0022
     98  CD1       30.4640    0.4770   64.3610 C.3    75  LEU75       0.0001
     99  CD2       32.7040    0.4840   63.1720 C.3    75  LEU75       0.0001
    100  N         33.9020    4.0140   66.9100 N.am   76  HIS76      -0.1959
    101  CA        34.4780    5.1820   67.5580 C.3    76  HIS76       0.1787
    102  C         34.9160    6.3290   66.6490 C.2    76  HIS76       0.2620
    103  O         35.1490    7.4390   67.1210 O.2    76  HIS76      -0.2715
    104  CB        35.6400    4.7940   68.4710 C.3    76  HIS76       0.0785
    105  CG        35.2270    4.1220   69.7360 C.ar   76  HIS76       0.0821
    106  ND1       34.9230    2.7550   69.8000 N.ar   76  HIS76      -0.2267
    107  CD2       35.1630    4.5640   71.0150 C.ar   76  HIS76       0.1154
    108  CE1       34.6060    2.4420   71.0410 C.ar   76  HIS76       0.1986
    109  NE2       34.7570    3.5180   71.8060 N.ar   76  HIS76      -0.2212
    110  N         35.0810    6.0600   65.3610 N.am   77  GLN77      -0.1963
    111  CA        35.4020    7.1240   64.4210 C.3    77  GLN77       0.1733
    112  C         34.7450    6.8480   63.0650 C.2    77  GLN77       0.2616
    113  O         34.3680    5.7150   62.7650 O.2    77  GLN77      -0.2715
    114  CB        36.9310    7.2570   64.2520 C.3    77  GLN77       0.0408
    115  CG        37.3460    8.6110   63.5800 C.3    77  GLN77       0.0908
    116  CD        38.8340    8.8820   63.6620 C.2    77  GLN77       0.2608
    117  OE1       39.3900    9.6170   62.8500 O.2    77  GLN77      -0.2717
    118  NE2       39.4850    8.2850   64.6480 N.am   77  GLN77      -0.0878
    119  N         34.5420    7.8980   62.2860 N.am   78  ASP78      -0.1971
    120  CA        34.1460    7.7350   60.8880 C.3    78  ASP78       0.1709
    121  C         35.2920    8.1430   59.9940 C.2    78  ASP78       0.2293
    122  O         36.2730    8.7500   60.4560 O.2    78  ASP78      -0.2864
    123  CB        32.8850    8.5330   60.5270 C.3    78  ASP78       0.1436
    124  CG        33.0830   10.0640   60.6650 C.2    78  ASP78       0.3671
    125  OD1       33.9790   10.6300   60.0330 O.co2  78  ASP78      -0.2456
    126  OD2       32.3450   10.6990   61.4210 O.co2  78  ASP78      -0.2456
    127  N         28.9110    7.8770   51.5520 N.3   121  LYS121     -0.1245
    128  CA        29.7730    9.0430   51.7210 C.3   121  LYS121      0.1561
    129  C         30.6460    8.8220   52.9510 C.2   121  LYS121      0.2260
    130  O         30.3550    7.9550   53.7750 O.2   121  LYS121     -0.2867
    131  CB        28.9600   10.3420   51.8460 C.3   121  LYS121      0.0271
    132  CG        27.9820   10.3870   53.0160 C.3   121  LYS121      0.0035
    133  CD        27.1410   11.6700   52.9630 C.3   121  LYS121      0.0206
    134  CE        25.7580   11.4760   53.5890 C.3   121  LYS121      0.1093
    135  NZ        25.8920   10.9920   54.9570 N.3   121  LYS121     -0.1314
    136  N         31.0700   10.1140   55.6490 N.3   123  GLN123     -0.1231
    137  CA        30.3830   10.3000   56.9350 C.3   123  GLN123      0.1698
    138  C         29.5620    9.0760   57.3310 C.2   123  GLN123      0.2592
    139  O         29.2780    8.8460   58.5070 O.2   123  GLN123     -0.2718
    140  CB        29.4820   11.5410   56.8590 C.3   123  GLN123      0.0381
    141  CG        30.2040   12.9080   56.6300 C.3   123  GLN123      0.0905
    142  CD        30.7100   13.1400   55.1850 C.2   123  GLN123      0.2608
    143  OE1       30.2350   12.5390   54.2300 O.2   123  GLN123     -0.2717
    144  NE2       31.6760   14.0360   55.0420 N.am  123  GLN123     -0.0878
    145  N         29.2140    8.2720   56.3370 N.am  124  ASN124     -0.1974
    146  CA        28.4720    7.0080   56.5320 C.3   124  ASN124      0.1688
    147  C         29.3680    5.7740   56.6350 C.2   124  ASN124      0.2292
    148  O         28.8970    4.6740   56.4420 O.2   124  ASN124     -0.2864
    149  CB        27.5330    6.7670   55.3330 C.3   124  ASN124      0.1181
    150  CG        26.2840    7.5990   55.3980 C.2   124  ASN124      0.2629
    151  OD1       25.9090    8.0780   56.4620 O.2   124  ASN124     -0.2716
    152  ND2       25.6700    7.8370   54.2510 N.am  124  ASN124     -0.0877
    153  N         32.3310    3.9210   58.9020 N.3   126  LEU126     -0.1245
    154  CA        32.7650    3.9180   60.3040 C.3   126  LEU126      0.1561
    155  C         33.8350    2.8720   60.5310 C.2   126  LEU126      0.2260
    156  O         33.7460    1.7750   59.9810 O.2   126  LEU126     -0.2867
    157  CB        31.5640    3.6390   61.2450 C.3   126  LEU126      0.0270
    158  CG        30.3880    4.6180   61.1540 C.3   126  LEU126      0.0019
    159  CD1       29.2620    4.1750   62.1380 C.3   126  LEU126      0.0001
    160  CD2       30.8400    6.0380   61.4440 C.3   126  LEU126      0.0001
    161  N         27.2730    2.2870   57.3090 N.3   136  ALA136     -0.1231
    162  CA        26.2360    2.6480   58.2630 C.3   136  ALA136      0.1694
    163  C         25.1040    3.3070   57.4480 C.2   136  ALA136      0.2592
    164  O         25.3740    3.8770   56.3840 O.2   136  ALA136     -0.2718
    165  CB        26.7910    3.6620   59.2550 C.3   136  ALA136      0.0304
    166  N         23.8930    3.3370   58.0110 N.am  137  ASP137     -0.1974
    167  CA        22.6860    3.8410   57.3370 C.3   137  ASP137      0.1709
    168  C         22.3130    3.0750   56.0640 C.2   137  ASP137      0.2293
    169  O         21.6260    3.6000   55.2080 O.2   137  ASP137     -0.2864
    170  CB        22.7890    5.3490   57.0450 C.3   137  ASP137      0.1436
    171  CG        22.6520    6.2110   58.3150 C.2   137  ASP137      0.3671
    172  OD1       22.6800    5.6370   59.4240 O.co2 137  ASP137     -0.2456
    173  OD2       22.5120    7.4630   58.2040 O.co2 137  ASP137     -0.2456
@<TRIPOS>BOND
     1   127   128    1
     2   128   131    1
     3   128   129    1
     4   131   132    1
     5   129   130    2
     6   133   132    1
     7   133   134    1
     8   134   135    1
     9   143   142    2
    10   152   150   am
    11   144   142   am
    12   142   141    1
    13   169   168    2
    14   149   150    1
    15   149   146    1
    16   150   151    2
    17    32    30    1
    18   136   137    1
    19    31    30    1
    20   168   167    1
    21   145   146    1
    22   145   138   am
    23   164   163    2
    24    30    27    1
    25   148   147    2
    26   146   147    1
    27   141   140    1
    28   140   137    1
    29   137   138    1
    30   170   167    1
    31   170   171    1
    32   161   162    1
    33   138   139    2
    34   167   166    1
    35   163   166   am
    36   163   162    1
    37    27    28    1
    38    27    26    1
    39   173   171   ar
    40   162   165    1
    41   171   172   ar
    42    28    29    2
    43    26    24   am
    44   153   154    1
    45    54    55    1
    46    24    25    2
    47    24    23    1
    48   156   155    2
    49   121   122    2
    50   121   120    1
    51   125   124   ar
    52   154   155    1
    53   154   157    1
    54   123   124    1
    55   123   120    1
    56    23    22    1
    57   124   126   ar
    58   120   119    1
    59    60    58    1
    60    57    56    2
    61    55    58    1
    62    55    56    1
    63   158   157    1
    64   158   160    1
    65   158   159    1
    66    58    59    1
    67    16    15    2
    68    22    15   am
    69    53    52    1
    70    69    71   ar
    71    69    67   ar
    72    71    70   ar
    73    15    14    1
    74   119   112   am
    75   113   112    2
    76   117   116    2
    77    67    66   ar
    78    17    14    1
    79    17    18    1
    80    70    68   ar
    81   112   111    1
    82    51    52    1
    83    51    50    1
    84    99    97    1
    85    14    13    1
    86   115   116    1
    87   115   114    1
    88   116   118   am
    89    80    78   ar
    90    18    19    1
    91    66    68   ar
    92    66    65    1
    93    13    11   am
    94   114   111    1
    95    98    97    1
    96    39    37    1
    97   111   110    1
    98    97    96    1
    99    50    49    1
   100    78    77    1
   101    78    79   ar
   102    49    46    1
   103    96    93    1
   104    11    10    1
   105    11    12    2
   106    21    19   ar
   107    19    20   ar
   108    65    62    1
   109    77    76    1
   110    10     9    1
   111   110   102   am
   112    37    38    1
   113    37    34    1
   114     4     3    2
   115    62    61    1
   116    62    63    1
   117    46    47    1
   118    46    45    1
   119    75    74    2
   120    93    94    1
   121    93    92    1
   122    33    34    1
   123    47    48    2
   124    76    73    1
   125    72    63   am
   126    72    73    1
   127     9     3   am
   128   102   103    2
   129   102   101    1
   130    94    95    2
   131    94   100   am
   132    34    35    1
   133    92    83   am
   134   100   101    1
   135     3     2    1
   136    63    64    2
   137    74    73    1
   138    74    81   am
   139    44    41    1
   140   101   104    1
   141    83    84    2
   142    83    82    1
   143     6     8    1
   144     6     5    1
   145    43    42    2
   146    35    36    2
   147    81    82    1
   148    82    85    1
   149     2     5    1
   150     2     1    1
   151   104   105    1
   152     5     7    1
   153    42    41    1
   154    41    40    1
   155    87    89   ar
   156    87    86   ar
   157    85    86    1
   158   105   106   ar
   159   105   107   ar
   160    89    91   ar
   161   106   108   ar
   162    86    88   ar
   163    91    90   ar
   164    88    90   ar
   165   107   109   ar
   166   108   109   ar
