@<TRIPOS>MOLECULE
tmp/2vttA00.pdb
 171 163 0 0 0
SMALL
GASTEIGER

@<TRIPOS>ATOM
      1  N         26.0400   11.5030   74.1750 N.3     8  GLU8       -0.1245
      2  CA        26.4060   12.6490   73.3640 C.3     8  GLU8        0.1567
      3  C         25.8720   12.5100   71.9490 C.2     8  GLU8        0.2260
      4  O         25.6790   11.4000   71.4410 O.2     8  GLU8       -0.2867
      5  CB        27.9230   12.8420   73.3340 C.3     8  GLU8        0.0388
      6  CG        28.6890   11.6250   72.8610 C.3     8  GLU8        0.1160
      7  CD        30.1710   11.8910   72.7200 C.2     8  GLU8        0.3649
      8  OE1       30.8900   11.0210   72.1850 O.co2   8  GLU8       -0.2457
      9  OE2       30.6190   12.9740   73.1490 O.co2   8  GLU8       -0.2457
     10  N         26.3330   12.4150   68.1420 N.3    10  ILE10      -0.1231
     11  CA        27.4580   12.0040   67.2860 C.3    10  ILE10       0.1692
     12  C         27.1300   12.1760   65.8110 C.2    10  ILE10       0.2593
     13  O         27.9150   11.8500   64.9150 O.2    10  ILE10      -0.2718
     14  CB        27.9100   10.5650   67.5900 C.3    10  ILE10       0.0266
     15  CG1       26.8170    9.5560   67.2100 C.3    10  ILE10       0.0019
     16  CG2       28.2830   10.4260   69.0570 C.3    10  ILE10       0.0020
     17  CD1       27.1940    8.1100   67.5590 C.3    10  ILE10       0.0001
     18  N         25.9320   12.6500   65.5430 N.am   11  GLY11      -0.1942
     19  CA        25.4830   12.5720   64.1780 C.3    11  GLY11       0.2014
     20  C         24.1800   13.2910   64.0190 C.2    11  GLY11       0.2638
     21  O         23.2770   13.2250   64.8520 O.2    11  GLY11      -0.2714
     22  N         24.1120   14.0540   62.9530 N.am   12  GLU12      -0.1977
     23  CA        22.8800   14.7090   62.6370 C.3    12  GLU12       0.1602
     24  C         22.7200   14.5580   61.1580 C.2    12  GLU12       0.2287
     25  O         23.5460   13.9430   60.4770 O.2    12  GLU12      -0.2864
     26  CB        22.9480   16.1900   63.0020 C.3    12  GLU12       0.0415
     27  CG        23.6080   17.0560   61.9440 C.3    12  GLU12       0.1163
     28  CD        23.2700   18.5230   62.1080 C.2    12  GLU12       0.3649
     29  OE1       23.3630   19.2780   61.1150 O.co2  12  GLU12      -0.2457
     30  OE2       22.8810   18.9180   63.2300 O.co2  12  GLU12      -0.2457
     31  N         21.5950   11.2360   65.5350 N.3    18  VAL18      -0.1245
     32  CA        22.2960   10.0580   66.0600 C.3    18  VAL18       0.1561
     33  C         23.0210   10.3910   67.3550 C.2    18  VAL18       0.2260
     34  O         23.7930   11.3450   67.4090 O.2    18  VAL18      -0.2867
     35  CB        23.2960    9.4670   65.0200 C.3    18  VAL18       0.0252
     36  CG1       23.7560    8.0480   65.4490 C.3    18  VAL18       0.0019
     37  CG2       22.6960    9.4500   63.6390 C.3    18  VAL18       0.0019
     38  N         25.0220    3.2370   69.1140 N.3    31  ALA31      -0.1245
     39  CA        24.5860    4.4200   68.3920 C.3    31  ALA31       0.1562
     40  C         23.0630    4.3370   68.2650 C.2    31  ALA31       0.2260
     41  O         22.5340    3.3160   67.8260 O.2    31  ALA31      -0.2867
     42  CB        25.2250    4.4550   67.0060 C.3    31  ALA31       0.0290
     43  N         19.8710    6.0440   66.4940 N.3    33  LYS33      -0.1245
     44  CA        19.3150    7.0060   65.5210 C.3    33  LYS33       0.1561
     45  C         17.8260    7.2800   65.8590 C.2    33  LYS33       0.2260
     46  O         17.0330    6.3500   65.9510 O.2    33  LYS33      -0.2867
     47  CB        19.4580    6.4860   64.0810 C.3    33  LYS33       0.0271
     48  CG        18.9850    7.4690   62.9860 C.3    33  LYS33       0.0035
     49  CD        19.5290    7.1390   61.5970 C.3    33  LYS33       0.0206
     50  CE        19.0450    8.1690   60.5550 C.3    33  LYS33       0.1093
     51  NZ        19.7720    8.1600   59.2420 N.3    33  LYS33      -0.1314
     52  N         27.3650   -2.0600   59.3440 N.3    53  VAL53      -0.1245
     53  CA        27.0690   -1.7780   60.7540 C.3    53  VAL53       0.1561
     54  C         25.8380   -2.5190   61.1550 C.2    53  VAL53       0.2260
     55  O         24.7690   -2.5070   60.5820 O.2    53  VAL53      -0.2867
     56  CB        26.8790   -0.2490   61.0590 C.3    53  VAL53       0.0252
     57  CG1       25.5920    0.2350   60.4420 C.3    53  VAL53       0.0019
     58  CG2       26.8370   -0.0390   62.5830 C.3    53  VAL53       0.0019
     59  N         22.1360    0.8100   66.8170 N.3    69  PHE69      -0.1227
     60  CA        23.2420    0.2030   66.0380 C.3    69  PHE69       0.1736
     61  C         24.4300   -0.1510   66.9350 C.2    69  PHE69       0.2595
     62  O         24.6300    0.4560   67.9820 O.2    69  PHE69      -0.2718
     63  CB        23.7290    1.1060   64.8720 C.3    69  PHE69       0.0547
     64  CG        22.6890    1.3630   63.8070 C.ar   69  PHE69      -0.0202
     65  CD1       22.4220    0.4200   62.8270 C.ar   69  PHE69      -0.0042
     66  CD2       21.9600    2.5390   63.8150 C.ar   69  PHE69      -0.0042
     67  CE1       21.4760    0.6520   61.8410 C.ar   69  PHE69      -0.0003
     68  CE2       21.0270    2.7920   62.8280 C.ar   69  PHE69      -0.0003
     69  CZ        20.7660    1.8450   61.8590 C.ar   69  PHE69      -0.0000
     70  N         25.2710   -1.0590   66.4710 N.am   70  GLU70      -0.1965
     71  CA        26.5640   -1.2500   67.1110 C.3    70  GLU70       0.1733
     72  C         27.3210    0.0830   66.9900 C.2    70  GLU70       0.2616
     73  O         27.1670    0.8090   66.0110 O.2    70  GLU70      -0.2715
     74  CB        27.3400   -2.4090   66.4600 C.3    70  GLU70       0.0429
     75  CG        28.3390   -1.9880   65.4470 C.3    70  GLU70       0.1163
     76  CD        29.0360   -3.1380   64.7420 C.2    70  GLU70       0.3649
     77  OE1       30.1090   -3.5610   65.1960 O.co2  70  GLU70      -0.2457
     78  OE2       28.6520   -3.4410   63.6110 O.co2  70  GLU70      -0.2457
     79  N         28.0570    0.4420   68.0270 N.am   71  PHE71      -0.1960
     80  CA        28.7740    1.7050   68.0380 C.3    71  PHE71       0.1771
     81  C         30.1680    1.5250   67.4420 C.2    71  PHE71       0.2619
     82  O         30.8360    0.5780   67.7630 O.2    71  PHE71      -0.2715
     83  CB        28.9300    2.1920   69.4660 C.3    71  PHE71       0.0574
     84  CG        29.6570    3.4830   69.5660 C.ar   71  PHE71      -0.0200
     85  CD1       30.9870    3.5160   69.9670 C.ar   71  PHE71      -0.0042
     86  CD2       29.0230    4.6700   69.2250 C.ar   71  PHE71      -0.0042
     87  CE1       31.6670    4.7350   69.9880 C.ar   71  PHE71      -0.0003
     88  CE2       29.6760    5.8650   69.2720 C.ar   71  PHE71      -0.0003
     89  CZ        31.0000    5.9110   69.6580 C.ar   71  PHE71      -0.0000
     90  N         30.5540    2.3840   66.5020 N.am   72  LEU72      -0.1963
     91  CA        31.9530    2.4250   66.0950 C.3    72  LEU72       0.1728
     92  C         32.5190    3.8030   66.4140 C.2    72  LEU72       0.2616
     93  O         31.8150    4.7900   66.2770 O.2    72  LEU72      -0.2715
     94  CB        32.1580    2.0820   64.6130 C.3    72  LEU72       0.0311
     95  CG        32.0610    0.6040   64.2140 C.3    72  LEU72       0.0022
     96  CD1       30.5730    0.2080   64.0380 C.3    72  LEU72       0.0001
     97  CD2       32.8690    0.3400   62.9090 C.3    72  LEU72       0.0001
     98  N         33.8170    3.8770   66.6860 N.am   73  HIS73      -0.1959
     99  CA        34.4020    5.1090   67.2290 C.3    73  HIS73       0.1787
    100  C         34.8060    6.1630   66.2310 C.2    73  HIS73       0.2620
    101  O         34.9180    7.3440   66.5820 O.2    73  HIS73      -0.2715
    102  CB        35.5990    4.7890   68.1140 C.3    73  HIS73       0.0785
    103  CG        35.2280    4.0900   69.3800 C.ar   73  HIS73       0.0821
    104  ND1       35.0940    4.7610   70.5810 N.ar   73  HIS73      -0.2267
    105  CD2       34.9400    2.7900   69.6330 C.ar   73  HIS73       0.1154
    106  CE1       34.7340    3.8980   71.5170 C.ar   73  HIS73       0.1986
    107  NE2       34.6250    2.7000   70.9660 N.ar   73  HIS73      -0.2212
    108  N         35.0440    5.7440   64.9940 N.am   74  GLN74      -0.1963
    109  CA        35.5320    6.6790   63.9960 C.3    74  GLN74       0.1733
    110  C         34.7640    6.5310   62.6830 C.2    74  GLN74       0.2616
    111  O         34.1480    5.4960   62.4120 O.2    74  GLN74      -0.2715
    112  CB        37.0430    6.5020   63.8240 C.3    74  GLN74       0.0408
    113  CG        37.6900    7.4170   62.7540 C.3    74  GLN74       0.0908
    114  CD        37.6570    8.8810   63.1320 C.2    74  GLN74       0.2608
    115  OE1       36.5920    9.4580   63.3420 O.2    74  GLN74      -0.2717
    116  NE2       38.8380    9.5040   63.1910 N.am   74  GLN74      -0.0878
    117  N         34.7390    7.5850   61.8820 N.am   75  ASP75      -0.1971
    118  CA        34.1840    7.4650   60.5120 C.3    75  ASP75       0.1709
    119  C         35.2870    7.8990   59.5270 C.2    75  ASP75       0.2293
    120  O         36.2810    8.5420   59.9230 O.2    75  ASP75      -0.2864
    121  CB        32.9210    8.3520   60.3070 C.3    75  ASP75       0.1436
    122  CG        33.2200    9.8870   60.5060 C.2    75  ASP75       0.3671
    123  OD1       33.6690   10.5700   59.5550 O.co2  75  ASP75      -0.2456
    124  OD2       33.0060   10.3950   61.6210 O.co2  75  ASP75      -0.2456
    125  N         36.2180   11.8420   59.0180 N.3    78  LYS78      -0.1245
    126  CA        37.1030   12.3550   60.0650 C.3    78  LYS78       0.1561
    127  C         38.5040   11.7760   59.9400 C.2    78  LYS78       0.2260
    128  O         39.4810   12.4720   60.1340 O.2    78  LYS78      -0.2867
    129  CB        36.5370   12.0840   61.4680 C.3    78  LYS78       0.0271
    130  CG        35.1550   12.7040   61.6640 C.3    78  LYS78       0.0035
    131  CD        34.8400   12.9890   63.1450 C.3    78  LYS78       0.0206
    132  CE        33.4570   13.6150   63.2980 C.3    78  LYS78       0.1093
    133  NZ        32.4970   13.0130   62.3300 N.3    78  LYS78      -0.1314
    134  N         31.4080    9.9980   55.5080 N.3   120  GLN120     -0.1231
    135  CA        30.8350   10.1570   56.8520 C.3   120  GLN120      0.1698
    136  C         29.9490    8.9890   57.3180 C.2   120  GLN120      0.2592
    137  O         29.7370    8.8240   58.5110 O.2   120  GLN120     -0.2718
    138  CB        30.0690   11.4750   57.0150 C.3   120  GLN120      0.0381
    139  CG        29.1020   11.8480   55.9260 C.3   120  GLN120      0.0905
    140  CD        28.8790   13.3500   55.8930 C.2   120  GLN120      0.2608
    141  OE1       29.6910   14.0920   55.3430 O.2   120  GLN120     -0.2717
    142  NE2       27.8410   13.8120   56.5980 N.am  120  GLN120     -0.0878
    143  N         29.3840    8.2170   56.3940 N.am  121  ASN121     -0.1974
    144  CA        28.6400    7.0250   56.8090 C.3   121  ASN121      0.1688
    145  C         29.4300    5.6970   56.6600 C.2   121  ASN121      0.2292
    146  O         28.8560    4.5990   56.6870 O.2   121  ASN121     -0.2864
    147  CB        27.2140    6.9690   56.2370 C.3   121  ASN121      0.1181
    148  CG        27.1680    6.9810   54.7270 C.2   121  ASN121      0.2629
    149  OD1       27.8370    6.1780   54.0670 O.2   121  ASN121     -0.2716
    150  ND2       26.2330    7.7740   54.1700 N.am  121  ASN121     -0.0877
    151  N         32.1520    3.6000   58.6720 N.3   123  LEU123     -0.1245
    152  CA        32.6130    3.6310   60.0530 C.3   123  LEU123      0.1561
    153  C         33.7880    2.6960   60.2200 C.2   123  LEU123      0.2260
    154  O         33.8220    1.6220   59.6120 O.2   123  LEU123     -0.2867
    155  CB        31.4830    3.2340   61.0340 C.3   123  LEU123      0.0270
    156  CG        30.1370    3.9820   60.8510 C.3   123  LEU123      0.0019
    157  CD1       29.0290    3.4330   61.8200 C.3   123  LEU123      0.0001
    158  CD2       30.4100    5.4420   61.1270 C.3   123  LEU123      0.0001
    159  N         27.1780    2.1270   56.7370 N.3   133  ALA133     -0.1231
    160  CA        26.1510    2.5760   57.6660 C.3   133  ALA133      0.1694
    161  C         25.1180    3.5020   56.9900 C.2   133  ALA133      0.2592
    162  O         25.3310    3.9910   55.8710 O.2   133  ALA133     -0.2718
    163  CB        26.7630    3.2320   58.8790 C.3   133  ALA133      0.0304
    164  N         23.9780    3.6790   57.6400 N.am  134  ASP134     -0.1974
    165  CA        22.9110    4.5570   57.1400 C.3   134  ASP134      0.1709
    166  C         22.4320    4.1270   55.7780 C.2   134  ASP134      0.2293
    167  O         22.3680    4.9400   54.8370 O.2   134  ASP134     -0.2864
    168  CB        23.3780    6.0000   57.0360 C.3   134  ASP134      0.1436
    169  CG        22.2260    6.9920   57.1550 C.2   134  ASP134      0.3671
    170  OD1       21.2010    6.6560   57.7820 O.co2 134  ASP134     -0.2456
    171  OD2       22.3670    8.1110   56.6440 O.co2 134  ASP134     -0.2456
@<TRIPOS>BOND
     1   149   148    2
     2   150   148   am
     3   148   147    1
     4   167   166    2
     5   141   140    2
     6   134   135    1
     7   166   165    1
     8   162   161    2
     9   140   139    1
    10   140   142   am
    11   139   138    1
    12   147   144    1
    13   143   144    1
    14   143   136   am
    15   171   169   ar
    16   145   146    2
    17   145   144    1
    18   159   160    1
    19   135   138    1
    20   135   136    1
    21   161   164   am
    22   161   160    1
    23   168   165    1
    24   168   169    1
    25   165   164    1
    26   169   170   ar
    27   136   137    2
    28   160   163    1
    29   151   152    1
    30   125   126    1
    31    51    50    1
    32    52    53    1
    33   119   120    2
    34   119   118    1
    35   123   122   ar
    36   154   153    2
    37   127   126    1
    38   127   128    2
    39   152   153    1
    40   152   155    1
    41   126   129    1
    42   121   122    1
    43   121   118    1
    44    57    56    1
    45    25    24    2
    46   122   124   ar
    47   118   117    1
    48    50    49    1
    49    55    54    2
    50    53    56    1
    51    53    54    1
    52   156   155    1
    53   156   158    1
    54   156   157    1
    55    56    58    1
    56    29    28   ar
    57    24    23    1
    58   129   130    1
    59    49    48    1
    60   130   131    1
    61    67    69   ar
    62    67    65   ar
    63    69    68   ar
    64   117   110   am
    65    27    28    1
    66    27    26    1
    67    28    30   ar
    68   133   132    1
    69   111   110    2
    70    23    22    1
    71    23    26    1
    72   110   109    1
    73   113   114    1
    74   113   112    1
    75    65    64   ar
    76    68    66   ar
    77    97    95    1
    78    22    20   am
    79    48    47    1
    80   114   116   am
    81   114   115    2
    82   131   132    1
    83    78    76   ar
    84    37    35    1
    85    64    66   ar
    86    64    63    1
    87   112   109    1
    88   109   108    1
    89    20    19    1
    90    20    21    2
    91    96    95    1
    92    47    44    1
    93    19    18    1
    94    95    94    1
    95    94    91    1
    96    76    77   ar
    97    76    75    1
    98    63    60    1
    99    13    12    2
   100   108   100   am
   101    35    36    1
   102    35    32    1
   103    75    74    1
   104    44    45    1
   105    44    43    1
   106    31    32    1
   107    18    12   am
   108    12    11    1
   109    45    46    2
   110    73    72    2
   111    60    59    1
   112    60    61    1
   113    32    33    1
   114    91    92    1
   115    91    90    1
   116   100   101    2
   117   100    99    1
   118    93    92    2
   119    92    98   am
   120    74    71    1
   121    70    61   am
   122    70    71    1
   123    90    81   am
   124    98    99    1
   125    61    62    2
   126    72    71    1
   127    72    79   am
   128    42    39    1
   129    15    17    1
   130    15    14    1
   131    99   102    1
   132    11    14    1
   133    11    10    1
   134    33    34    2
   135    81    82    2
   136    81    80    1
   137    14    16    1
   138    41    40    2
   139    79    80    1
   140    80    83    1
   141   102   103    1
   142    40    39    1
   143    39    38    1
   144    86    88   ar
   145    86    84   ar
   146    88    89   ar
   147   103   105   ar
   148   103   104   ar
   149    83    84    1
   150    84    85   ar
   151   105   107   ar
   152    89    87   ar
   153    85    87   ar
   154   104   106   ar
   155   107   106   ar
   156     4     3    2
   157     3     2    1
   158     8     7   ar
   159     7     6    1
   160     7     9   ar
   161     6     5    1
   162     5     2    1
   163     2     1    1
