@<TRIPOS>MOLECULE
tmp/2vu2B00.pdb
 159 151 0 0 0
SMALL
GASTEIGER

@<TRIPOS>ATOM
      1  N          6.9750   13.2540   21.1760 N.3    15  PHE15      -0.1241
      2  CA         7.8640   12.5200   22.0250 C.3    15  PHE15       0.1605
      3  C          7.0320   11.9900   23.1550 C.2    15  PHE15       0.2264
      4  O          6.3770   12.7500   23.8990 O.2    15  PHE15      -0.2867
      5  CB         9.0100   13.3930   22.5350 C.3    15  PHE15       0.0534
      6  CG        10.1300   12.6040   23.1330 C.ar   15  PHE15      -0.0203
      7  CD1       10.7490   11.5900   22.3990 C.ar   15  PHE15      -0.0042
      8  CD2       10.5580   12.8440   24.4160 C.ar   15  PHE15      -0.0042
      9  CE1       11.7690   10.8410   22.9470 C.ar   15  PHE15      -0.0003
     10  CE2       11.5940   12.1070   24.9620 C.ar   15  PHE15      -0.0003
     11  CZ        12.1970   11.1000   24.2220 C.ar   15  PHE15      -0.0000
     12  N         19.2880   11.3990    8.9720 N.3    86  CYS86      -0.1235
     13  CA        18.0640   12.1020    8.5370 C.3    86  CYS86       0.1677
     14  C         17.6810   11.7570    7.0950 C.2    86  CYS86       0.2270
     15  O         16.5150   11.7940    6.7210 O.2    86  CYS86      -0.2867
     16  CB        18.2230   13.6220    8.7050 C.3    86  CYS86       0.0956
     17  SG        18.8780   14.1580   10.3330 S.3    86  CYS86      -0.0801
     18  N         19.9330   10.2300   21.7670 N.3   141  ILE141     -0.1245
     19  CA        20.8230   11.3760   21.6710 C.3   141  ILE141      0.1561
     20  C         22.2340   11.0010   21.2180 C.2   141  ILE141      0.2260
     21  O         22.9080   11.7920   20.5290 O.2   141  ILE141     -0.2867
     22  CB        21.0460   12.0860   23.0520 C.3   141  ILE141      0.0252
     23  CG1       19.7160   12.5050   23.7070 C.3   141  ILE141      0.0019
     24  CG2       22.0180   13.2680   22.8890 C.3   141  ILE141      0.0019
     25  CD1       18.7160   13.1000   22.7420 C.3   141  ILE141      0.0001
     26  N         21.5770    9.2280   17.4410 N.3   144  GLY144     -0.1210
     27  CA        20.6750    9.9880   16.5600 C.3   144  GLY144      0.1956
     28  C         20.9930   11.4720   16.4650 C.2   144  GLY144      0.2611
     29  O         20.9500   12.0200   15.3800 O.2   144  GLY144     -0.2717
     30  N         21.3690   12.1010   17.5820 N.am  145  LEU145     -0.1979
     31  CA        21.4000   13.5750   17.7170 C.3   145  LEU145      0.1596
     32  C         22.7400   14.2510   18.0810 C.2   145  LEU145      0.2287
     33  O         22.7880   15.4760   18.1420 O.2   145  LEU145     -0.2864
     34  CB        20.3850   13.9920   18.7980 C.3   145  LEU145      0.0297
     35  CG        18.9930   13.4050   18.5700 C.3   145  LEU145      0.0022
     36  CD1       17.9920   13.8090   19.6820 C.3   145  LEU145      0.0001
     37  CD2       18.5110   13.7980   17.1700 C.3   145  LEU145      0.0001
     38  N         25.5560   18.4030   20.1250 N.3   153  HIS153     -0.1226
     39  CA        24.2120   18.1850   19.5550 C.3   153  HIS153      0.1752
     40  C         24.0720   18.8590   18.1870 C.2   153  HIS153      0.2595
     41  O         24.7410   19.8470   17.9000 O.2   153  HIS153     -0.2718
     42  CB        23.1390   18.7410   20.5090 C.3   153  HIS153      0.0759
     43  CG        21.7550   18.2150   20.2660 C.ar  153  HIS153      0.0818
     44  ND1       21.0850   17.4520   21.1970 N.ar  153  HIS153     -0.2268
     45  CD2       20.9000   18.3720   19.2250 C.ar  153  HIS153      0.1154
     46  CE1       19.8830   17.1500   20.7340 C.ar  153  HIS153      0.1986
     47  NE2       19.7480   17.6950   19.5370 N.ar  153  HIS153     -0.2212
     48  N         23.1920   18.3150   17.3530 N.am  154  MET154     -0.1979
     49  CA        22.8630   18.9170   16.0400 C.3   154  MET154      0.1605
     50  C         22.4560   20.4020   16.0890 C.2   154  MET154      0.2287
     51  O         22.6540   21.1200   15.1080 O.2   154  MET154     -0.2864
     52  CB        21.7740   18.1150   15.3280 C.3   154  MET154      0.0413
     53  CG        22.1860   16.6910   14.9090 C.3   154  MET154      0.0598
     54  SD        23.4860   16.5930   13.6510 S.3   154  MET154     -0.1393
     55  CE        24.9460   16.4130   14.6620 C.3   154  MET154      0.0692
     56  N          1.8980   16.9590   17.0410 N.3   215  TYR215     -0.1241
     57  CA         2.9260   17.8980   17.4690 C.3   215  TYR215      0.1605
     58  C          2.6760   19.2970   16.8990 C.2   215  TYR215      0.2264
     59  O          3.2310   20.2860   17.4080 O.2   215  TYR215     -0.2867
     60  CB         4.2670   17.3590   17.0010 C.3   215  TYR215      0.0534
     61  CG         5.5230   18.1150   17.3870 C.ar  215  TYR215     -0.0201
     62  CD1        5.9130   18.2790   18.7300 C.ar  215  TYR215     -0.0009
     63  CD2        6.3630   18.6160   16.3940 C.ar  215  TYR215     -0.0009
     64  CE1        7.0940   18.9580   19.0450 C.ar  215  TYR215      0.0417
     65  CE2        7.5140   19.2610   16.7010 C.ar  215  TYR215      0.0417
     66  CZ         7.8850   19.4260   17.9990 C.ar  215  TYR215      0.1957
     67  OH         9.0540   20.0870   18.1840 O.3   215  TYR215     -0.2866
     68  N         18.3770   26.6670   23.3870 N.3   231  ALA231     -0.1231
     69  CA        18.4660   25.2680   23.8320 C.3   231  ALA231      0.1694
     70  C         19.8920   24.7120   23.8920 C.2   231  ALA231      0.2592
     71  O         20.1640   23.8120   24.6890 O.2   231  ALA231     -0.2718
     72  CB        17.5960   24.3620   22.9340 C.3   231  ALA231      0.0304
     73  N         20.7920   25.2300   23.0540 N.am  232  PHE232     -0.1976
     74  CA        22.1450   24.6730   22.9250 C.3   232  PHE232      0.1639
     75  C         23.2400   25.6320   23.3930 C.2   232  PHE232      0.2290
     76  O         23.8870   25.3850   24.4140 O.2   232  PHE232     -0.2864
     77  CB        22.3740   24.2260   21.4830 C.3   232  PHE232      0.0560
     78  CG        21.2500   23.4130   20.9460 C.ar  232  PHE232     -0.0200
     79  CD1       21.1370   22.0670   21.2630 C.ar  232  PHE232     -0.0042
     80  CD2       20.2620   24.0060   20.1690 C.ar  232  PHE232     -0.0042
     81  CE1       20.0610   21.3150   20.7850 C.ar  232  PHE232     -0.0003
     82  CE2       19.1920   23.2570   19.6830 C.ar  232  PHE232     -0.0003
     83  CZ        19.0900   21.9170   19.9930 C.ar  232  PHE232     -0.0000
     84  N         14.1000   25.6360   21.1780 N.3   240  ALA240     -0.1245
     85  CA        13.1970   24.4970   21.0430 C.3   240  ALA240      0.1562
     86  C         11.9920   24.8770   20.2040 C.2   240  ALA240      0.2260
     87  O         11.2680   24.0080   19.7000 O.2   240  ALA240     -0.2867
     88  CB        12.7610   24.0050   22.3890 C.3   240  ALA240      0.0290
     89  N         13.7390   24.8630   16.3600 N.3   243  ALA243     -0.1231
     90  CA        14.2230   23.5480   15.9930 C.3   243  ALA243      0.1694
     91  C         13.0500   22.5770   15.8540 C.2   243  ALA243      0.2593
     92  O         11.9540   22.8130   16.3790 O.2   243  ALA243     -0.2718
     93  CB        15.2180   23.0450   17.0360 C.3   243  ALA243      0.0304
     94  N         13.2960   21.4800   15.1360 N.am  244  SER244     -0.1938
     95  CA        12.3470   20.3660   15.0320 C.3   244  SER244      0.2055
     96  C         12.2300   19.6950   16.3870 C.2   244  SER244      0.2644
     97  O         12.8640   20.1150   17.3570 O.2   244  SER244     -0.2714
     98  CB        12.8130   19.3490   13.9850 C.3   244  SER244      0.2130
     99  OG        11.7090   18.6520   13.4120 O.3   244  SER244     -0.2179
    100  N         11.4020   18.6650   16.4640 N.am  245  GLY245     -0.1939
    101  CA        11.2190   17.9260   17.7080 C.3   245  GLY245      0.2014
    102  C         11.7760   16.5070   17.6950 C.2   245  GLY245      0.2638
    103  O         12.4630   16.0900   16.7530 O.2   245  GLY245     -0.2714
    104  N         11.4540   15.7880   18.7660 N.am  246  LEU246     -0.1977
    105  CA        11.6840   14.3680   18.8720 C.3   246  LEU246      0.1596
    106  C         10.3290   13.7090   18.6490 C.2   246  LEU246      0.2287
    107  O          9.3710   14.0130   19.3470 O.2   246  LEU246     -0.2864
    108  CB        12.2230   14.0620   20.2550 C.3   246  LEU246      0.0297
    109  CG        13.3690   15.0060   20.6250 C.3   246  LEU246      0.0022
    110  CD1       13.6790   14.9210   22.0950 C.3   246  LEU246      0.0001
    111  CD2       14.6320   14.7400   19.7190 C.3   246  LEU246      0.0001
    112  N         26.3880   20.8620    8.8090 N.3   285  MET285     -0.1245
    113  CA        25.6620   19.7360    8.1750 C.3   285  MET285      0.1570
    114  C         24.2720   20.1110    7.6290 C.2   285  MET285      0.2261
    115  O         23.7610   19.4450    6.7090 O.2   285  MET285     -0.2867
    116  CB        25.5290   18.5780    9.1680 C.3   285  MET285      0.0387
    117  CG        24.4950   18.8020   10.2610 C.3   285  MET285      0.0595
    118  SD        22.8240   18.2580    9.8080 S.3   285  MET285     -0.1393
    119  CE        21.9440   18.8020   11.2860 C.3   285  MET285      0.0692
    120  N         15.0160   20.8390    9.6200 N.3   315  ALA315     -0.1231
    121  CA        15.6430   20.2980   10.8490 C.3   315  ALA315      0.1694
    122  C         15.7550   21.4400   11.8350 C.2   315  ALA315      0.2592
    123  O         15.3610   21.3130   12.9770 O.2   315  ALA315     -0.2718
    124  CB        17.0080   19.7080   10.5670 C.3   315  ALA315      0.0304
    125  N         16.2790   22.5670   11.3560 N.am  316  PHE316     -0.1976
    126  CA        16.3440   23.8100   12.1220 C.3   316  PHE316      0.1639
    127  C         15.9710   24.9920   11.2320 C.2   316  PHE316      0.2290
    128  O         16.1710   24.9420   10.0130 O.2   316  PHE316     -0.2864
    129  CB        17.7610   24.0160   12.6510 C.3   316  PHE316      0.0560
    130  CG        18.2310   22.9170   13.5300 C.ar  316  PHE316     -0.0200
    131  CD1       18.0590   22.9900   14.8980 C.ar  316  PHE316     -0.0042
    132  CD2       18.8390   21.7900   12.9890 C.ar  316  PHE316     -0.0042
    133  CE1       18.4840   21.9690   15.7180 C.ar  316  PHE316     -0.0003
    134  CE2       19.2690   20.7600   13.8110 C.ar  316  PHE316     -0.0003
    135  CZ        19.0870   20.8520   15.1720 C.ar  316  PHE316     -0.0000
    136  N         10.0130   15.4060   13.5450 N.3   345  HIS345     -0.1241
    137  CA        11.1710   14.8650   12.8410 C.3   345  HIS345      0.1621
    138  C         11.4620   13.4610   13.3280 C.2   345  HIS345      0.2264
    139  O         12.2980   13.2640   14.1860 O.2   345  HIS345     -0.2867
    140  CB        12.4080   15.7590   13.0020 C.3   345  HIS345      0.0745
    141  CG        13.5440   15.3700   12.1020 C.ar  345  HIS345      0.0817
    142  ND1       13.4040   15.2500   10.7370 N.ar  345  HIS345     -0.2268
    143  CD2       14.8270   15.0450   12.3730 C.ar  345  HIS345      0.1154
    144  CE1       14.5510   14.8670   10.2050 C.ar  345  HIS345      0.1986
    145  NE2       15.4310   14.7330   11.1770 N.ar  345  HIS345     -0.2212
    146  N         13.4570   10.6630   12.7910 N.3   347  ILE347     -0.1245
    147  CA        14.7040   10.7070   11.9720 C.3   347  ILE347      0.1561
    148  C         14.6650    9.8370   10.7070 C.2   347  ILE347      0.2260
    149  O         14.7940   10.3530    9.5930 O.2   347  ILE347     -0.2867
    150  CB        15.9980   10.3640   12.7690 C.3   347  ILE347      0.0252
    151  CG1       16.2340   11.3180   13.9280 C.3   347  ILE347      0.0019
    152  CG2       17.2680   10.4460   11.8720 C.3   347  ILE347      0.0019
    153  CD1       17.3120   10.7970   14.8560 C.3   347  ILE347      0.0001
    154  N         18.7000   17.6950    4.9620 N.3   375  CYS375     -0.1235
    155  CA        20.0730   17.7580    5.5000 C.3   375  CYS375      0.1677
    156  C         20.3340   16.5770    6.4360 C.2   375  CYS375      0.2270
    157  O         19.4390   16.2010    7.2070 O.2   375  CYS375     -0.2867
    158  CB        20.2680   19.0300    6.3270 C.3   375  CYS375      0.0956
    159  SG        19.3310   18.9430    7.8720 S.3   375  CYS375     -0.0801
@<TRIPOS>BOND
     1   154   155    1
     2   155   158    1
     3   155   156    1
     4   158   159    1
     5   156   157    2
     6   115   114    2
     7    15    14    2
     8    14    13    1
     9   114   113    1
    10   113   112    1
    11   113   116    1
    12    13    16    1
    13    13    12    1
    14    16    17    1
    15   116   117    1
    16   149   148    2
    17   120   121    1
    18   118   117    1
    19   118   119    1
    20   128   127    2
    21   144   142   ar
    22   144   145   ar
    23   124   121    1
    24   148   147    1
    25   142   141   ar
    26   121   122    1
    27   145   143   ar
    28   127   126    1
    29   125   122   am
    30   125   126    1
    31   122   123    2
    32   152   150    1
    33   147   150    1
    34   147   146    1
    35   141   143   ar
    36   141   140    1
    37   126   129    1
    38   129   130    1
    39   150   151    1
    40   137   140    1
    41   137   138    1
    42   137   136    1
    43   132   130   ar
    44   132   134   ar
    45   138   139    2
    46    99    98    1
    47   130   131   ar
    48    54    55    1
    49    54    53    1
    50   134   135   ar
    51   151   153    1
    52    98    95    1
    53   131   133   ar
    54    53    52    1
    55    95    94    1
    56    95    96    1
    57    51    50    2
    58    94    91   am
    59   135   133   ar
    60    52    49    1
    61    29    28    2
    62    91    90    1
    63    91    92    2
    64    90    89    1
    65    90    93    1
    66    49    50    1
    67    49    48    1
    68    96   100   am
    69    96    97    2
    70    63    65   ar
    71    63    61   ar
    72   100   101    1
    73    28    27    1
    74    28    30   am
    75    27    26    1
    76    65    66   ar
    77   103   102    2
    78    58    59    2
    79    58    57    1
    80    60    61    1
    81    60    57    1
    82    56    57    1
    83    37    35    1
    84    48    40   am
    85    61    62   ar
    86    30    31    1
    87   102   101    1
    88   102   104   am
    89    31    32    1
    90    31    34    1
    91    41    40    2
    92    66    67    1
    93    66    64   ar
    94    32    33    2
    95    40    39    1
    96    35    34    1
    97    35    36    1
    98   106   105    1
    99   106   107    2
   100    62    64   ar
   101   104   105    1
   102   105   108    1
   103    45    47   ar
   104    45    43   ar
   105    47    46   ar
   106    39    38    1
   107    39    42    1
   108    82    83   ar
   109    82    80   ar
   110    87    86    2
   111   111   109    1
   112    83    81   ar
   113    80    78   ar
   114    86    85    1
   115   108   109    1
   116    43    42    1
   117    43    44   ar
   118    21    20    2
   119   109   110    1
   120    46    44   ar
   121    81    79   ar
   122    78    79   ar
   123    78    77    1
   124    85    84    1
   125    85    88    1
   126     1     2    1
   127    20    19    1
   128    77    74    1
   129    19    18    1
   130    19    22    1
   131     2     5    1
   132     2     3    1
   133     7     9   ar
   134     7     6   ar
   135     5     6    1
   136    25    23    1
   137    24    22    1
   138    74    73    1
   139    74    75    1
   140    72    69    1
   141     9    11   ar
   142    22    23    1
   143    73    70   am
   144     6     8   ar
   145     3     4    2
   146    68    69    1
   147    75    76    2
   148    69    70    1
   149    70    71    2
   150    11    10   ar
   151     8    10   ar
