@<TRIPOS>MOLECULE
tmp/2vu3A00.pdb
 149 142 0 0 0
SMALL
GASTEIGER

@<TRIPOS>ATOM
      1  N         25.6970   12.6270   68.7140 N.3    10  ILE10      -0.1245
      2  CA        26.7950   12.3270   67.8040 C.3    10  ILE10       0.1561
      3  C         26.6780   13.2430   66.6050 C.2    10  ILE10       0.2260
      4  O         27.6870   13.6960   66.0600 O.2    10  ILE10      -0.2867
      5  CB        26.7160   10.8760   67.3080 C.3    10  ILE10       0.0252
      6  CG1       27.3600    9.9030   68.2950 C.3    10  ILE10       0.0019
      7  CG2       27.3590   10.7610   65.9300 C.3    10  ILE10       0.0019
      8  CD1       27.0630    8.4440   67.9240 C.3    10  ILE10       0.0001
      9  N         21.3440   11.4180   65.7250 N.3    18  VAL18      -0.1245
     10  CA        22.0770   10.2240   66.1730 C.3    18  VAL18       0.1561
     11  C         22.7000   10.4820   67.5370 C.2    18  VAL18       0.2260
     12  O         23.3710   11.4930   67.7190 O.2    18  VAL18      -0.2867
     13  CB        23.1600    9.7770   65.1380 C.3    18  VAL18       0.0252
     14  CG1       23.8620    8.4860   65.6250 C.3    18  VAL18       0.0019
     15  CG2       22.5240    9.5630   63.7810 C.3    18  VAL18       0.0019
     16  N         24.8550    3.3010   69.1090 N.3    31  ALA31      -0.1245
     17  CA        24.4310    4.5290   68.4340 C.3    31  ALA31       0.1562
     18  C         22.9300    4.3610   68.2240 C.2    31  ALA31       0.2260
     19  O         22.4750    3.3470   67.6910 O.2    31  ALA31      -0.2867
     20  CB        25.1350    4.6680   67.0720 C.3    31  ALA31       0.0290
     21  N         19.5260    6.0500   66.5350 N.3    33  LYS33      -0.1245
     22  CA        19.0300    7.0460   65.5900 C.3    33  LYS33       0.1561
     23  C         17.5390    7.3150   65.8300 C.2    33  LYS33       0.2260
     24  O         16.7280    6.4070   65.8850 O.2    33  LYS33      -0.2867
     25  CB        19.2700    6.5990   64.1510 C.3    33  LYS33       0.0271
     26  CG        18.7130    7.5390   63.0860 C.3    33  LYS33       0.0035
     27  CD        18.9300    6.9150   61.7230 C.3    33  LYS33       0.0206
     28  CE        18.7030    7.9110   60.6200 C.3    33  LYS33       0.1093
     29  NZ        18.7870    7.2640   59.2850 N.3    33  LYS33      -0.1314
     30  N         27.2300   -2.0680   59.3460 N.3    55  VAL55      -0.1245
     31  CA        27.0130   -1.7170   60.7410 C.3    55  VAL55       0.1561
     32  C         25.8050   -2.5100   61.2710 C.2    55  VAL55       0.2260
     33  O         24.7110   -2.4830   60.6940 O.2    55  VAL55      -0.2867
     34  CB        26.8960   -0.1620   60.9950 C.3    55  VAL55       0.0252
     35  CG1       25.5790    0.4060   60.4020 C.3    55  VAL55       0.0019
     36  CG2       26.9860    0.1460   62.5000 C.3    55  VAL55       0.0019
     37  N         22.0290    0.8270   66.6580 N.3    71  PHE71      -0.1227
     38  CA        23.1910    0.2320   65.9800 C.3    71  PHE71       0.1736
     39  C         24.3610   -0.1100   66.9060 C.2    71  PHE71       0.2595
     40  O         24.5600    0.5150   67.9420 O.2    71  PHE71      -0.2718
     41  CB        23.7100    1.1540   64.8470 C.3    71  PHE71       0.0547
     42  CG        22.6890    1.4480   63.8020 C.ar   71  PHE71      -0.0202
     43  CD1       22.4480    0.5470   62.7880 C.ar   71  PHE71      -0.0042
     44  CD2       21.9410    2.6300   63.8490 C.ar   71  PHE71      -0.0042
     45  CE1       21.4700    0.8030   61.8030 C.ar   71  PHE71      -0.0003
     46  CE2       20.9470    2.8870   62.8910 C.ar   71  PHE71      -0.0003
     47  CZ        20.7760    1.9980   61.8210 C.ar   71  PHE71      -0.0000
     48  N         25.2000   -1.0410   66.4630 N.am   72  GLU72      -0.1965
     49  CA        26.5050   -1.1840   67.0970 C.3    72  GLU72       0.1733
     50  C         27.2460    0.1580   66.9700 C.2    72  GLU72       0.2616
     51  O         27.1380    0.8750   65.9700 O.2    72  GLU72      -0.2715
     52  CB        27.2940   -2.3510   66.4870 C.3    72  GLU72       0.0429
     53  CG        28.0020   -1.9830   65.2560 C.3    72  GLU72       0.1163
     54  CD        28.8390   -3.0910   64.6620 C.2    72  GLU72       0.3649
     55  OE1       29.9150   -3.4060   65.2060 O.co2  72  GLU72      -0.2457
     56  OE2       28.5730   -3.4350   63.5030 O.co2  72  GLU72      -0.2457
     57  N         28.0000    0.5000   67.9930 N.am   73  PHE73      -0.1960
     58  CA        28.6720    1.7920   68.0340 C.3    73  PHE73       0.1771
     59  C         30.0770    1.6100   67.4670 C.2    73  PHE73       0.2619
     60  O         30.7560    0.6560   67.7780 O.2    73  PHE73      -0.2715
     61  CB        28.7660    2.3020   69.4750 C.3    73  PHE73       0.0574
     62  CG        29.5270    3.5970   69.6150 C.ar   73  PHE73      -0.0200
     63  CD1       30.8810    3.5950   69.9410 C.ar   73  PHE73      -0.0042
     64  CD2       28.8910    4.8090   69.4490 C.ar   73  PHE73      -0.0042
     65  CE1       31.5640    4.8060   70.0580 C.ar   73  PHE73      -0.0003
     66  CE2       29.5780    5.9910   69.5310 C.ar   73  PHE73      -0.0003
     67  CZ        30.8920    5.9970   69.8850 C.ar   73  PHE73      -0.0000
     68  N         30.4870    2.5380   66.6280 N.am   74  LEU74      -0.1963
     69  CA        31.8780    2.5720   66.2080 C.3    74  LEU74       0.1728
     70  C         32.4090    3.9560   66.4920 C.2    74  LEU74       0.2616
     71  O         31.7310    4.9370   66.2220 O.2    74  LEU74      -0.2715
     72  CB        32.0450    2.2020   64.7350 C.3    74  LEU74       0.0311
     73  CG        32.1080    0.7030   64.3980 C.3    74  LEU74       0.0022
     74  CD1       30.6720    0.2030   64.2230 C.3    74  LEU74       0.0001
     75  CD2       32.9750    0.4290   63.0810 C.3    74  LEU74       0.0001
     76  N         33.6860    4.0220   66.8470 N.am   75  HIS75      -0.1959
     77  CA        34.3130    5.2470   67.3020 C.3    75  HIS75       0.1787
     78  C         34.6160    6.2960   66.2660 C.2    75  HIS75       0.2620
     79  O         34.6060    7.4850   66.5420 O.2    75  HIS75      -0.2715
     80  CB        35.5630    4.9050   68.1360 C.3    75  HIS75       0.0785
     81  CG        35.2260    4.2230   69.4230 C.ar   75  HIS75       0.0821
     82  ND1       35.0530    2.8560   69.5230 N.ar   75  HIS75      -0.2267
     83  CD2       34.9460    4.7300   70.6500 C.ar   75  HIS75       0.1154
     84  CE1       34.6870    2.5510   70.7600 C.ar   75  HIS75       0.1986
     85  NE2       34.6370    3.6660   71.4670 N.ar   75  HIS75      -0.2212
     86  N         34.8700    5.8660   65.0540 N.am   76  GLN76      -0.1963
     87  CA        35.3810    6.7980   64.0660 C.3    76  GLN76       0.1733
     88  C         34.7100    6.5870   62.7140 C.2    76  GLN76       0.2616
     89  O         34.2400    5.4930   62.3860 O.2    76  GLN76      -0.2715
     90  CB        36.9160    6.6700   63.9670 C.3    76  GLN76       0.0408
     91  CG        37.5030    7.4720   62.8050 C.3    76  GLN76       0.0908
     92  CD        37.6360    8.9330   63.1160 C.2    76  GLN76       0.2608
     93  OE1       38.7340    9.4820   63.0250 O.2    76  GLN76      -0.2717
     94  NE2       36.5240    9.5820   63.4970 N.am   76  GLN76      -0.0878
     95  N         34.6430    7.6540   61.9360 N.am   77  ASP77      -0.1971
     96  CA        34.1980    7.5400   60.5360 C.3    77  ASP77       0.1709
     97  C         35.3250    7.9180   59.5820 C.2    77  ASP77       0.2293
     98  O         36.3580    8.4660   60.0050 O.2    77  ASP77      -0.2864
     99  CB        32.9200    8.3420   60.2620 C.3    77  ASP77       0.1436
    100  CG        33.1400    9.8780   60.3210 C.2    77  ASP77       0.3671
    101  OD1       33.9120   10.4470   59.5110 O.co2  77  ASP77      -0.2456
    102  OD2       32.4450   10.5340   61.1180 O.co2  77  ASP77      -0.2456
    103  N         36.4690   11.7010   58.9650 N.3    80  LYS80      -0.1245
    104  CA        37.3740   12.2870   59.9650 C.3    80  LYS80       0.1561
    105  C         38.7990   11.7070   59.9180 C.2    80  LYS80       0.2260
    106  O         39.7870   12.4300   60.0700 O.2    80  LYS80      -0.2867
    107  CB        36.7580   12.1830   61.3660 C.3    80  LYS80       0.0271
    108  CG        35.3310   12.7210   61.4180 C.3    80  LYS80       0.0035
    109  CD        34.8550   13.0280   62.8440 C.3    80  LYS80       0.0206
    110  CE        33.4080   12.6340   63.0190 C.3    80  LYS80       0.1093
    111  NZ        32.6220   12.8940   61.7840 N.3    80  LYS80      -0.1314
    112  N         31.5210    9.9910   55.4370 N.3   122  GLN122     -0.1231
    113  CA        30.9260   10.1220   56.7600 C.3   122  GLN122      0.1698
    114  C         29.9680    8.9760   57.1210 C.2   122  GLN122      0.2592
    115  O         29.6030    8.8160   58.2900 O.2   122  GLN122     -0.2718
    116  CB        30.2090   11.4520   56.9120 C.3   122  GLN122      0.0381
    117  CG        29.1130   11.6040   55.9210 C.3   122  GLN122      0.0905
    118  CD        28.6050   13.0130   55.8330 C.2   122  GLN122      0.2608
    119  OE1       27.5450   13.3420   56.3810 O.2   122  GLN122     -0.2717
    120  NE2       29.3280   13.8510   55.1040 N.am  122  GLN122     -0.0878
    121  N         29.5110    8.2120   56.1370 N.am  123  ASN123     -0.1974
    122  CA        28.6780    7.0060   56.3110 C.3   123  ASN123      0.1688
    123  C         29.4880    5.7070   56.4600 C.2   123  ASN123      0.2292
    124  O         28.8960    4.6320   56.4790 O.2   123  ASN123     -0.2864
    125  CB        27.7510    6.8070   55.1000 C.3   123  ASN123      0.1181
    126  CG        26.6100    7.7940   55.0490 C.2   123  ASN123      0.2629
    127  OD1       26.1160    8.2600   56.0890 O.2   123  ASN123     -0.2716
    128  ND2       26.1440    8.0850   53.8340 N.am  123  ASN123     -0.0877
    129  N         32.1650    3.6250   58.7000 N.3   125  LEU125     -0.1245
    130  CA        32.7250    3.6480   60.0510 C.3   125  LEU125      0.1561
    131  C         33.8250    2.6650   60.1860 C.2   125  LEU125      0.2260
    132  O         33.7520    1.5850   59.6290 O.2   125  LEU125     -0.2867
    133  CB        31.6310    3.3080   61.0720 C.3   125  LEU125      0.0270
    134  CG        30.3430    4.1460   60.9920 C.3   125  LEU125      0.0019
    135  CD1       29.1930    3.3570   61.7190 C.3   125  LEU125      0.0001
    136  CD2       30.6170    5.4660   61.7160 C.3   125  LEU125      0.0001
    137  N         27.2260    2.1880   56.6520 N.3   135  ALA135     -0.1231
    138  CA        26.1950    2.6370   57.6050 C.3   135  ALA135      0.1694
    139  C         25.2100    3.6060   56.9100 C.2   135  ALA135      0.2592
    140  O         25.4830    4.0830   55.8130 O.2   135  ALA135     -0.2718
    141  CB        26.8320    3.3200   58.7720 C.3   135  ALA135      0.0304
    142  N         24.0890    3.8870   57.5510 N.am  136  ASP136     -0.1974
    143  CA        23.0720    4.8480   57.0310 C.3   136  ASP136      0.1709
    144  C         22.5100    4.4710   55.6680 C.2   136  ASP136      0.2293
    145  O         22.5420    5.2610   54.7180 O.2   136  ASP136     -0.2864
    146  CB        23.6030    6.2810   56.9480 C.3   136  ASP136      0.1436
    147  CG        22.4700    7.3250   56.9720 C.2   136  ASP136      0.3671
    148  OD1       21.4030    7.0380   57.5500 O.co2 136  ASP136     -0.2456
    149  OD2       22.7090    8.4710   56.5610 O.co2 136  ASP136     -0.2456
@<TRIPOS>BOND
     1   128   126   am
     2   145   144    2
     3   126   125    1
     4   126   127    2
     5   125   122    1
     6   120   118   am
     7   112   113    1
     8   144   143    1
     9   140   139    2
    10   118   117    1
    11   118   119    2
    12   117   116    1
    13   121   122    1
    14   121   114   am
    15   122   123    1
    16   123   124    2
    17   149   147   ar
    18   137   138    1
    19   113   116    1
    20   113   114    1
    21   139   142   am
    22   139   138    1
    23   146   147    1
    24   146   143    1
    25   147   148   ar
    26   143   142    1
    27   114   115    2
    28   138   141    1
    29   129   130    1
    30   103   104    1
    31    29    28    1
    32    30    31    1
    33   101   100   ar
    34    97    98    2
    35    97    96    1
    36   132   131    2
    37   105   104    1
    38   105   106    2
    39   104   107    1
    40   130   131    1
    41   130   133    1
    42    99   100    1
    43    99    96    1
    44   100   102   ar
    45    35    34    1
    46    96    95    1
    47    28    27    1
    48    33    32    2
    49    31    34    1
    50    31    32    1
    51   134   133    1
    52   134   136    1
    53   134   135    1
    54    34    36    1
    55   107   108    1
    56   108   109    1
    57    27    26    1
    58   111   110    1
    59    45    47   ar
    60    45    43   ar
    61    47    46   ar
    62    95    88   am
    63    89    88    2
    64    88    87    1
    65    43    42   ar
    66    91    92    1
    67    91    90    1
    68   109   110    1
    69    46    44   ar
    70    93    92    2
    71    75    73    1
    72    26    25    1
    73    92    94   am
    74    56    54   ar
    75    15    13    1
    76    42    44   ar
    77    42    41    1
    78    90    87    1
    79    87    86    1
    80    25    22    1
    81    74    73    1
    82    73    72    1
    83    54    55   ar
    84    54    53    1
    85    72    69    1
    86    41    38    1
    87    86    78   am
    88    13    14    1
    89    13    10    1
    90    53    52    1
    91    22    23    1
    92    22    21    1
    93     9    10    1
    94    23    24    2
    95     7     5    1
    96    51    50    2
    97    38    37    1
    98    38    39    1
    99     4     3    2
   100    10    11    1
   101    69    70    1
   102    69    68    1
   103    71    70    2
   104    78    79    2
   105    78    77    1
   106    48    39   am
   107    48    49    1
   108    52    49    1
   109    70    76   am
   110     3     2    1
   111    68    59   am
   112    76    77    1
   113    39    40    2
   114    50    49    1
   115    50    57   am
   116    20    17    1
   117    77    80    1
   118     5     2    1
   119     5     6    1
   120    59    60    2
   121    59    58    1
   122    11    12    2
   123    19    18    2
   124     2     1    1
   125     8     6    1
   126    57    58    1
   127    58    61    1
   128    80    81    1
   129    18    17    1
   130    17    16    1
   131    81    82   ar
   132    81    83   ar
   133    64    66   ar
   134    64    62   ar
   135    61    62    1
   136    82    84   ar
   137    66    67   ar
   138    62    63   ar
   139    67    65   ar
   140    63    65   ar
   141    83    85   ar
   142    84    85   ar
