@<TRIPOS>MOLECULE
tmp/2vu9A00.pdb
 154 151 0 0 0
SMALL
GASTEIGER

@<TRIPOS>ATOM
      1  N          7.9930   13.6380   13.0510 N.3   245  TYR245     -0.1227
      2  CA         6.5900   13.4460   13.4360 C.3   245  TYR245      0.1736
      3  C          6.3300   14.1360   14.7570 C.2   245  TYR245      0.2595
      4  O          5.2880   14.7690   14.9280 O.2   245  TYR245     -0.2718
      5  CB         6.2330   11.9610   13.5470 C.3   245  TYR245      0.0548
      6  CG         4.7520   11.6690   13.3970 C.ar  245  TYR245     -0.0200
      7  CD1        4.2680   11.0260   12.2720 C.ar  245  TYR245     -0.0009
      8  CD2        3.8450   12.0640   14.3550 C.ar  245  TYR245     -0.0009
      9  CE1        2.9040   10.7630   12.1040 C.ar  245  TYR245      0.0417
     10  CE2        2.4950   11.8060   14.2010 C.ar  245  TYR245      0.0417
     11  CZ         2.0310   11.1590   13.0820 C.ar  245  TYR245      0.1957
     12  OH         0.6580   10.9250   12.9200 O.3   245  TYR245     -0.2866
     13  N          7.2800   14.0340   15.6830 N.am  246  ASP246     -0.1974
     14  CA         7.1310   14.5500   17.0260 C.3   246  ASP246      0.1709
     15  C          8.2900   15.5060   17.2820 C.2   246  ASP246      0.2293
     16  O          9.2190   15.1580   17.9970 O.2   246  ASP246     -0.2864
     17  CB         7.2230   13.4260   18.0650 C.3   246  ASP246      0.1436
     18  CG         5.9410   12.6040   18.2140 C.2   246  ASP246      0.3671
     19  OD1        4.9510   12.8160   17.5000 O.co2 246  ASP246     -0.2456
     20  OD2        5.9640   11.7130   19.0820 O.co2 246  ASP246     -0.2456
     21  N          6.2330   -6.8240   14.6820 N.3   330  VAL330     -0.1231
     22  CA         6.9680   -6.1760   13.6220 C.3   330  VAL330      0.1692
     23  C          7.9150   -5.1070   14.1490 C.2   330  VAL330      0.2591
     24  O          8.9710   -4.8860   13.5720 O.2   330  VAL330     -0.2718
     25  CB         6.0360   -5.5900   12.5270 C.3   330  VAL330      0.0266
     26  CG1        5.1020   -4.5720   13.0960 C.3   330  VAL330      0.0020
     27  CG2        6.8330   -5.0110   11.3770 C.3   330  VAL330      0.0020
     28  N          7.5290   -4.4320   15.2340 N.am  331  GLU331     -0.1979
     29  CA         8.3430   -3.3450   15.7920 C.3   331  GLU331      0.1602
     30  C          9.4310   -3.9570   16.6560 C.2   331  GLU331      0.2287
     31  O          9.1220   -4.6900   17.5950 O.2   331  GLU331     -0.2864
     32  CB         7.5070   -2.4100   16.6610 C.3   331  GLU331      0.0415
     33  CG         6.4680   -1.5870   15.8940 C.3   331  GLU331      0.1163
     34  CD         5.1640   -2.3400   15.6420 C.2   331  GLU331      0.3649
     35  OE1        4.9060   -3.4140   16.2670 O.co2 331  GLU331     -0.2457
     36  OE2        4.3810   -1.8440   14.7980 O.co2 331  GLU331     -0.2457
     37  N          9.4160    5.0990   15.9600 N.3   380  PHE380     -0.1227
     38  CA         8.9630    4.9230   17.3440 C.3   380  PHE380      0.1736
     39  C          7.5620    4.2980   17.3770 C.2   380  PHE380      0.2595
     40  O          6.8340    4.3180   16.3730 O.2   380  PHE380     -0.2718
     41  CB         8.9880    6.2490   18.1170 C.3   380  PHE380      0.0547
     42  CG         7.9810    7.2640   17.6490 C.ar  380  PHE380     -0.0202
     43  CD1        6.6740    7.2700   18.1380 C.ar  380  PHE380     -0.0042
     44  CD2        8.3370    8.2030   16.6960 C.ar  380  PHE380     -0.0042
     45  CE1        5.7660    8.2440   17.7030 C.ar  380  PHE380     -0.0003
     46  CE2        7.4270    9.1430   16.2430 C.ar  380  PHE380     -0.0003
     47  CZ         6.1610    9.1640   16.7290 C.ar  380  PHE380     -0.0000
     48  N          7.2280    3.6730   18.4970 N.am  381  HIS381     -0.1961
     49  CA         5.9400    3.0110   18.6430 C.3   381  HIS381      0.1787
     50  C          5.5500    3.1060   20.1040 C.2   381  HIS381      0.2620
     51  O          6.4050    3.0050   20.9920 O.2   381  HIS381     -0.2715
     52  CB         6.0560    1.5530   18.1960 C.3   381  HIS381      0.0785
     53  CG         4.7470    0.8370   18.0910 C.ar  381  HIS381      0.0821
     54  ND1        3.8950    0.9830   17.0140 N.ar  381  HIS381     -0.2267
     55  CD2        4.1780   -0.0800   18.9030 C.ar  381  HIS381      0.1154
     56  CE1        2.8420    0.1990   17.1850 C.ar  381  HIS381      0.1986
     57  NE2        2.9880   -0.4610   18.3230 N.ar  381  HIS381     -0.2212
     58  N          4.2580    3.2940   20.3490 N.am  382  GLN382     -0.1977
     59  CA         3.7410    3.3530   21.7150 C.3   382  GLN382      0.1601
     60  C          3.6450    1.9580   22.3110 C.2   382  GLN382      0.2287
     61  O          2.8840    1.1100   21.8030 O.2   382  GLN382     -0.2864
     62  CB         2.3570    3.9710   21.7300 C.3   382  GLN382      0.0394
     63  CG         2.2840    5.4340   21.4140 C.3   382  GLN382      0.0908
     64  CD         2.8560    6.3350   22.5110 C.2   382  GLN382      0.2608
     65  OE1        2.7450    6.0450   23.7010 O.2   382  GLN382     -0.2717
     66  NE2        3.4150    7.4490   22.1080 N.am  382  GLN382     -0.0878
     67  N         11.9960    2.0970   17.6750 N.3   390  VAL390     -0.1245
     68  CA        11.8900    0.7870   17.0700 C.3   390  VAL390      0.1561
     69  C         12.4270    0.8240   15.6400 C.2   390  VAL390      0.2260
     70  O         12.4250    1.8790   14.9990 O.2   390  VAL390     -0.2867
     71  CB        10.4320    0.3010   17.0010 C.3   390  VAL390      0.0252
     72  CG1        9.7770    0.2650   18.4100 C.3   390  VAL390      0.0019
     73  CG2        9.5900    1.1740   16.0350 C.3   390  VAL390      0.0019
     74  N         11.0930   -0.9130   12.2130 N.3   392  SER392     -0.1217
     75  CA         9.8400   -1.5310   11.7850 C.3   392  SER392      0.1889
     76  C          9.6280   -1.4910   10.2780 C.2   392  SER392      0.2288
     77  O          9.5950   -0.4280    9.6710 O.2   392  SER392     -0.2866
     78  CB         8.6490   -0.8360   12.4340 C.3   392  SER392      0.2089
     79  OG         7.4480   -1.4680   12.0270 O.3   392  SER392     -0.2183
     80  N          6.9690   -1.9610    8.8500 N.3   394  TRP394     -0.1227
     81  CA         5.6950   -1.2690    8.5690 C.3   394  TRP394      0.1737
     82  C          5.9840    0.0440    7.8670 C.2   394  TRP394      0.2595
     83  O          5.2790    0.4220    6.9350 O.2   394  TRP394     -0.2718
     84  CB         4.9280   -1.0160    9.8720 C.3   394  TRP394      0.0564
     85  CG         3.5730   -0.3440    9.7020 C.ar  394  TRP394      0.0003
     86  CD1        2.3890   -0.9510    9.4620 C.ar  394  TRP394      0.0946
     87  CD2        3.2930    1.0570    9.8250 C.ar  394  TRP394      0.0152
     88  NE1        1.3750   -0.0170    9.3940 N.ar  394  TRP394     -0.2442
     89  CE2        1.9100    1.2240    9.6220 C.ar  394  TRP394      0.0810
     90  CE3        4.0830    2.1850   10.0810 C.ar  394  TRP394      0.0012
     91  CZ2        1.2950    2.4770    9.6690 C.ar  394  TRP394      0.0191
     92  CZ3        3.4780    3.4350   10.1280 C.ar  394  TRP394      0.0001
     93  CH2        2.0900    3.5670    9.9260 C.ar  394  TRP394      0.0015
     94  N          7.0080    0.7570    8.3270 N.am  395  TYR395     -0.1976
     95  CA         7.3750    2.0480    7.7280 C.3   395  TYR395      0.1639
     96  C          7.7380    1.9080    6.2520 C.2   395  TYR395      0.2290
     97  O          7.3160    2.7020    5.3920 O.2   395  TYR395     -0.2864
     98  CB         8.5570    2.6750    8.4540 C.3   395  TYR395      0.0560
     99  CG         8.2660    3.2330    9.8270 C.ar  395  TYR395     -0.0198
    100  CD1        7.3320    4.2500   10.0020 C.ar  395  TYR395     -0.0009
    101  CD2        8.9960    2.8130   10.9410 C.ar  395  TYR395     -0.0009
    102  CE1        7.0900    4.8050   11.2540 C.ar  395  TYR395      0.0417
    103  CE2        8.7540    3.3520   12.1970 C.ar  395  TYR395      0.0417
    104  CZ         7.7940    4.3490   12.3460 C.ar  395  TYR395      0.1957
    105  OH         7.5300    4.9170   13.5670 O.3   395  TYR395     -0.2866
    106  N          6.7020    0.0010    4.1620 N.3   397  ARG397     -0.1231
    107  CA         5.5200   -0.3240    3.3630 C.3   397  ARG397      0.1694
    108  C          4.5750    0.8680    3.1890 C.2   397  ARG397      0.2592
    109  O          3.5920    0.7710    2.4410 O.2   397  ARG397     -0.2718
    110  CB         4.7950   -1.4940    4.0270 C.3   397  ARG397      0.0321
    111  CG         5.6320   -2.7630    4.0140 C.3   397  ARG397      0.0489
    112  CD         5.3430   -3.6920    5.1960 C.3   397  ARG397      0.2205
    113  NE         6.1850   -4.8990    5.1750 N.pl3 397  ARG397     -0.0865
    114  CZ         6.3570   -5.7250    6.2120 C.cat 397  ARG397      0.5346
    115  NH1        5.7690   -5.4840    7.3850 N.pl3 397  ARG397      0.1354
    116  NH2        7.1380   -6.7980    6.0840 N.pl3 397  ARG397      0.1354
    117  N          4.8690    1.9930    3.8440 N.am  398  GLN398     -0.1966
    118  CA         3.9940    3.1650    3.7760 C.3   398  GLN398      0.1733
    119  C          4.2530    4.0570    2.5670 C.2   398  GLN398      0.2616
    120  O          5.3340    4.0390    1.9530 O.2   398  GLN398     -0.2715
    121  CB         4.1180    4.0060    5.0530 C.3   398  GLN398      0.0408
    122  CG         3.7930    3.2480    6.3260 C.3   398  GLN398      0.0908
    123  CD         2.4600    2.5320    6.2510 C.2   398  GLN398      0.2608
    124  OE1        1.4250    3.1470    5.9740 O.2   398  GLN398     -0.2717
    125  NE2        2.4740    1.2290    6.4940 N.am  398  GLN398     -0.0878
    126  N          3.2460    4.8760    2.2570 N.am  399  ILE399     -0.1977
    127  CA         3.3140    5.8210    1.1520 C.3   399  ILE399      0.1596
    128  C          4.4320    6.8480    1.3920 C.2   399  ILE399      0.2287
    129  O          4.5690    7.3950    2.4900 O.2   399  ILE399     -0.2864
    130  CB         1.9550    6.5500    0.9500 C.3   399  ILE399      0.0276
    131  CG1        0.8650    5.5430    0.5650 C.3   399  ILE399      0.0022
    132  CG2        2.0710    7.6120   -0.1350 C.3   399  ILE399      0.0022
    133  CD1       -0.5300    6.1330    0.5210 C.3   399  ILE399      0.0001
    134  N          2.1570   11.0340    5.8500 N.3   403  SER403     -0.1202
    135  CA         2.1250   11.1790    7.2880 C.3   403  SER403      0.2020
    136  C          2.7530    9.9820    7.9510 C.2   403  SER403      0.2618
    137  O          3.3550   10.1000    8.9990 O.2   403  SER403     -0.2717
    138  CB         0.6920   11.2740    7.7900 C.3   403  SER403      0.2103
    139  OG         0.0170   10.0520    7.5590 O.3   403  SER403     -0.2182
    140  N          2.5910    8.8230    7.3290 N.am  404  ARG404     -0.1979
    141  CA         3.0170    7.5860    7.9430 C.3   404  ARG404      0.1597
    142  C          4.5080    7.2850    7.7380 C.2   404  ARG404      0.2287
    143  O          4.9700    6.2360    8.1420 O.2   404  ARG404     -0.2864
    144  CB         2.1090    6.4410    7.4730 C.3   404  ARG404      0.0334
    145  CG         0.6430    6.6510    7.8860 C.3   404  ARG404      0.0492
    146  CD        -0.2310    5.5180    7.4000 C.3   404  ARG404      0.2205
    147  NE        -1.6230    5.6340    7.8520 N.pl3 404  ARG404     -0.0865
    148  CZ        -2.5530    6.4260    7.3100 C.cat 404  ARG404      0.5346
    149  NH1       -2.2660    7.2190    6.2800 N.pl3 404  ARG404      0.1354
    150  NH2       -3.7900    6.4300    7.8100 N.pl3 404  ARG404      0.1354
    151  N          7.2420    9.5600   11.1420 N.3   407  GLY407     -0.1225
    152  CA         7.7630    8.9270   12.3520 C.3   407  GLY407      0.1811
    153  C          9.1330    8.2990   12.1960 C.2   407  GLY407      0.2280
    154  O          9.8610    8.1360   13.1740 O.2   407  GLY407     -0.2866
@<TRIPOS>BOND
     1   132   130    1
     2   133   131    1
     3   131   130    1
     4   130   127    1
     5   127   128    1
     6   127   126    1
     7   128   129    2
     8   120   119    2
     9   126   119   am
    10   109   108    2
    11   119   118    1
    12   108   107    1
    13   108   117   am
    14   107   110    1
    15   107   106    1
    16   118   117    1
    17   118   121    1
    18   111   110    1
    19   111   112    1
    20   121   122    1
    21   113   112    1
    22   113   114    2
    23    97    96    2
    24   134   135    1
    25   124   123    2
    26   116   114    1
    27   114   115    1
    28   123   122    1
    29   123   125   am
    30    96    95    1
    31   149   148    1
    32    83    82    2
    33   135   138    1
    34   135   136    1
    35   148   150    1
    36   148   147    2
    37   140   141    1
    38   140   136   am
    39   146   147    1
    40   146   145    1
    41   144   145    1
    42   144   141    1
    43   139   138    1
    44    95    94    1
    45    95    98    1
    46   142   141    1
    47   142   143    2
    48    82    94   am
    49    82    81    1
    50   136   137    2
    51    98    99    1
    52    81    80    1
    53    81    84    1
    54    88    86   ar
    55    88    89   ar
    56    86    85   ar
    57    89    91   ar
    58    89    87   ar
    59    91    93   ar
    60    77    76    2
    61    85    87   ar
    62    85    84    1
    63    87    90   ar
    64    99   100   ar
    65    99   101   ar
    66    93    92   ar
    67   100   102   ar
    68    90    92   ar
    69    76    75    1
    70   101   103   ar
    71   151   152    1
    72   102   104   ar
    73    27    25    1
    74    75    74    1
    75    75    78    1
    76    79    78    1
    77     9     7   ar
    78     9    11   ar
    79   153   152    1
    80   153   154    2
    81   103   104   ar
    82     7     6   ar
    83   104   105    1
    84    25    26    1
    85    25    22    1
    86    12    11    1
    87     1     2    1
    88    11    10   ar
    89     6     5    1
    90     6     8   ar
    91     2     5    1
    92     2     3    1
    93    24    23    2
    94    22    23    1
    95    22    21    1
    96    23    28   am
    97    10     8   ar
    98     3     4    2
    99     3    13   am
   100    36    34   ar
   101    70    69    2
   102    28    29    1
   103    69    68    1
   104    34    33    1
   105    34    35   ar
   106    13    14    1
   107    29    30    1
   108    29    32    1
   109    33    32    1
   110    37    38    1
   111    73    71    1
   112    46    44   ar
   113    46    47   ar
   114    40    39    2
   115    30    31    2
   116    44    42   ar
   117    47    45   ar
   118    71    68    1
   119    71    72    1
   120    54    56   ar
   121    54    53   ar
   122    14    15    1
   123    14    17    1
   124    68    67    1
   125    56    57   ar
   126    15    16    2
   127    38    39    1
   128    38    41    1
   129    39    48   am
   130    19    18   ar
   131    42    41    1
   132    42    43   ar
   133    45    43   ar
   134    17    18    1
   135    53    52    1
   136    53    55   ar
   137    52    49    1
   138    18    20   ar
   139    57    55   ar
   140    48    49    1
   141    49    50    1
   142    50    58   am
   143    50    51    2
   144    58    59    1
   145    63    62    1
   146    63    64    1
   147    59    62    1
   148    59    60    1
   149    61    60    2
   150    66    64   am
   151    64    65    2
