@<TRIPOS>MOLECULE
tmp/2vucD00.pdb
 109 102 0 0 0
SMALL
GASTEIGER

@<TRIPOS>ATOM
      1  N          5.6710   17.1170   13.8720 N.3    21  ASN21      -0.1225
      2  CA         6.0760   17.7020   15.1590 C.3    21  ASN21       0.1785
      3  C          6.7520   19.0570   14.9360 C.2    21  ASN21       0.2598
      4  O          7.9740   19.1620   15.0810 O.2    21  ASN21      -0.2718
      5  CB         7.0560   16.7770   15.8830 C.3    21  ASN21       0.1169
      6  CG         6.4250   15.5040   16.3680 C.2    21  ASN21       0.2627
      7  OD1        5.7310   15.4870   17.3970 O.2    21  ASN21      -0.2716
      8  ND2        6.6840   14.4130   15.6440 N.am   21  ASN21      -0.0877
      9  N          5.9810   20.0740   14.5780 N.am   22  SER22      -0.1938
     10  CA         6.5620   21.3790   14.2190 C.3    22  SER22       0.2055
     11  C          5.4360   22.3930   14.1150 C.2    22  SER22       0.2644
     12  O          4.2870   22.0430   13.8420 O.2    22  SER22      -0.2714
     13  CB         7.2530   21.2670   12.8490 C.3    22  SER22       0.2130
     14  OG         7.6920   22.5660   12.4440 O.3    22  SER22      -0.2179
     15  N          5.7670   23.6740   14.2870 N.am   23  SER23      -0.1935
     16  CA         4.8070   24.7320   13.9800 C.3    23  SER23       0.2055
     17  C          4.5590   24.8550   12.4780 C.2    23  SER23       0.2643
     18  O          3.5220   25.4050   12.0880 O.2    23  SER23      -0.2714
     19  CB         5.2740   26.0660   14.5570 C.3    23  SER23       0.2130
     20  OG         6.5190   26.4370   14.0240 O.3    23  SER23      -0.2179
     21  N          5.4790   24.3580   11.6430 N.am   24  GLY24      -0.1954
     22  CA         5.3050   24.4950   10.2020 C.3    24  GLY24       0.1869
     23  C          4.4990   23.3590    9.6090 C.2    24  GLY24       0.2309
     24  O          4.5640   22.2160   10.0760 O.2    24  GLY24      -0.2863
     25  N          2.0440   19.6780   16.5080 N.3    45  THR45      -0.1218
     26  CA         3.1670   19.6170   17.4490 C.3    45  THR45       0.1862
     27  C          3.0020   18.4630   18.4300 C.2    45  THR45       0.2287
     28  O          3.7070   18.3750   19.4360 O.2    45  THR45      -0.2866
     29  CB         3.3820   20.9600   18.1970 C.3    45  THR45       0.1770
     30  OG1        2.1160   21.4040   18.7240 O.3    45  THR45      -0.2211
     31  CG2        3.9430   22.0040   17.2520 C.3    45  THR45       0.0375
     32  N          8.7390   22.3840    3.8410 N.3    69  VAL69      -0.1231
     33  CA         7.8420   23.2320    4.6050 C.3    69  VAL69       0.1692
     34  C          7.7430   24.5380    3.8350 C.2    69  VAL69       0.2592
     35  O          8.7610   25.2320    3.6440 O.2    69  VAL69      -0.2718
     36  CB         8.3640   23.4870    6.0210 C.3    69  VAL69       0.0266
     37  CG1        7.4770   24.4640    6.7630 C.3    69  VAL69       0.0020
     38  CG2        8.4090   22.1700    6.7650 C.3    69  VAL69       0.0020
     39  N          6.5270   24.8430    3.3680 N.am   70  ASN70      -0.1974
     40  CA         6.2810   26.0430    2.5460 C.3    70  ASN70       0.1688
     41  C          7.3130   26.1550    1.4230 C.2    70  ASN70       0.2292
     42  O          7.8410   27.2580    1.1600 O.2    70  ASN70      -0.2864
     43  CB         6.2560   27.2910    3.4250 C.3    70  ASN70       0.1181
     44  CG         5.2100   27.2020    4.5350 C.2    70  ASN70       0.2629
     45  OD1        4.1630   26.5910    4.3690 O.2    70  ASN70      -0.2716
     46  ND2        5.5340   27.7550    5.6940 N.am   70  ASN70      -0.0877
     47  N         10.3550   25.0090    1.1840 N.3    72  ARG72      -0.1245
     48  CA        11.7540   24.9220    1.5810 C.3    72  ARG72       0.1563
     49  C         12.0870   23.4610    1.9170 C.2    72  ARG72       0.2260
     50  O         11.4830   22.8900    2.8330 O.2    72  ARG72      -0.2867
     51  CB        11.9970   25.8360    2.7810 C.3    72  ARG72       0.0307
     52  CG        13.4470   25.9370    3.2390 C.3    72  ARG72       0.0489
     53  CD        13.6480   26.9990    4.2980 C.3    72  ARG72       0.2205
     54  NE        15.0510   27.0850    4.7320 N.pl3  72  ARG72      -0.0865
     55  CZ        15.5440   26.4580    5.7980 C.cat  72  ARG72       0.5346
     56  NH1       14.7570   25.6820    6.5240 N.pl3  72  ARG72       0.1354
     57  NH2       16.8260   26.5850    6.1200 N.pl3  72  ARG72       0.1354
     58  N         14.3980   18.0570    9.4480 N.3    95  GLU95      -0.1231
     59  CA        14.5610   19.2960   10.1990 C.3    95  GLU95       0.1699
     60  C         14.1940   20.4820    9.3200 C.2    95  GLU95       0.2592
     61  O         14.7650   20.6740    8.2300 O.2    95  GLU95      -0.2718
     62  CB        16.0000   19.4330   10.7080 C.3    95  GLU95       0.0402
     63  CG        16.2540   20.7060   11.5210 C.3    95  GLU95       0.1161
     64  CD        15.2820   20.8430   12.6850 C.2    95  GLU95       0.3649
     65  OE1       15.1030   19.8730   13.4610 O.co2  95  GLU95      -0.2457
     66  OE2       14.6840   21.9440   12.8330 O.co2  95  GLU95      -0.2457
     67  N         13.2530   21.2790    9.8090 N.am   96  ASP96      -0.1960
     68  CA        12.7560   22.4610    9.1100 C.3    96  ASP96       0.1840
     69  C         13.2600   23.7920    9.6950 C.2    96  ASP96       0.2623
     70  O         12.9300   24.8630    9.1570 O.2    96  ASP96      -0.2715
     71  CB        11.2170   22.4290    9.0210 C.3    96  ASP96       0.1450
     72  CG        10.5190   22.6290   10.3550 C.2    96  ASP96       0.3671
     73  OD1       11.1550   23.0930   11.3090 O.co2  96  ASP96      -0.2456
     74  OD2        9.3140   22.2990   10.4200 O.co2  96  ASP96      -0.2456
     75  N         14.0520   23.7300   10.7580 N.am   97  GLY97      -0.1940
     76  CA        14.4340   24.9440   11.4630 C.3    97  GLY97       0.2014
     77  C         15.8400   24.8580   11.9920 C.2    97  GLY97       0.2640
     78  O         16.7500   24.4540   11.2790 O.2    97  GLY97      -0.2714
     79  N         16.0180   25.2230   13.2600 N.am   98  THR98      -0.1936
     80  CA        17.3340   25.3990   13.8590 C.3    98  THR98       0.2028
     81  C         17.6000   24.5090   15.0510 C.2    98  THR98       0.2642
     82  O         18.7570   24.3430   15.4520 O.2    98  THR98      -0.2714
     83  CB        17.5680   26.8730   14.3060 C.3    98  THR98       0.1808
     84  OG1       16.5300   27.2450   15.2090 O.3    98  THR98      -0.2208
     85  CG2       17.5810   27.8050   13.1010 C.3    98  THR98       0.0379
     86  N         16.5590   23.9170   15.6320 N.am   99  ASP99      -0.1971
     87  CA        16.7740   23.1610   16.8670 C.3    99  ASP99       0.1709
     88  C         17.3840   21.7850   16.6770 C.2    99  ASP99       0.2293
     89  O         17.8800   21.2000   17.6240 O.2    99  ASP99      -0.2864
     90  CB        15.5220   23.1120   17.7550 C.3    99  ASP99       0.1436
     91  CG        14.3880   22.2970   17.1670 C.2    99  ASP99       0.3671
     92  OD1       14.4800   21.8380   16.0040 O.co2  99  ASP99      -0.2456
     93  OD2       13.3740   22.1530   17.8660 O.co2  99  ASP99      -0.2456
     94  N         16.0150   18.9000   16.2690 N.3   101  ASP101     -0.1239
     95  CA        15.3370   17.7120   16.8140 C.3   101  ASP101      0.1674
     96  C         15.0450   16.6600   15.7360 C.2   101  ASP101      0.2266
     97  O         14.8330   15.5110   16.0600 O.2   101  ASP101     -0.2867
     98  CB        14.1100   18.0600   17.6790 C.3   101  ASP101      0.1410
     99  CG        12.9700   18.7520   16.9370 C.2   101  ASP101      0.3668
    100  OD1       13.0820   19.0710   15.7230 O.co2 101  ASP101     -0.2456
    101  OD2       11.9120   18.9950   17.5780 O.co2 101  ASP101     -0.2456
    102  N         10.4950   16.9260   12.6970 N.3   104  ASP104     -0.1239
    103  CA         9.4770   17.8910   12.2540 C.3   104  ASP104      0.1674
    104  C          8.4600   17.2050   11.3560 C.2   104  ASP104      0.2266
    105  O          7.2520   17.4410   11.4720 O.2   104  ASP104     -0.2867
    106  CB        10.1830   19.0940   11.6010 C.3   104  ASP104      0.1410
    107  CG        11.0790   19.8120   12.6020 C.2   104  ASP104      0.3668
    108  OD1       10.7150   19.9070   13.8170 O.co2 104  ASP104     -0.2456
    109  OD2       12.1550   20.2810   12.2230 O.co2 104  ASP104     -0.2456
@<TRIPOS>BOND
     1    42    41    2
     2    47    48    1
     3    41    40    1
     4    48    49    1
     5    48    51    1
     6    49    50    2
     7    40    39    1
     8    40    43    1
     9    51    52    1
    10    52    53    1
    11    39    34   am
    12    43    44    1
    13    35    34    2
    14    34    33    1
    15    32    33    1
    16    53    54    1
    17    45    44    2
    18    44    46   am
    19    33    36    1
    20    54    55    2
    21    55    57    1
    22    55    56    1
    23    36    37    1
    24    36    38    1
    25    61    60    2
    26    71    68    1
    27    71    72    1
    28    68    69    1
    29    68    67    1
    30    70    69    2
    31    60    67   am
    32    60    59    1
    33    58    59    1
    34    23    24    2
    35    23    22    1
    36    69    75   am
    37    59    62    1
    38    22    21    1
    39    72    74   ar
    40    72    73   ar
    41    62    63    1
    42    75    76    1
    43    78    77    2
    44   104   105    2
    45   104   103    1
    46    76    77    1
    47    63    64    1
    48   106   103    1
    49   106   107    1
    50    21    17   am
    51    77    79   am
    52    18    17    2
    53   109   107   ar
    54   103   102    1
    55    14    13    1
    56    17    16    1
    57   107   108   ar
    58    64    66   ar
    59    64    65   ar
    60    13    10    1
    61    85    83    1
    62    79    80    1
    63    12    11    2
    64    80    83    1
    65    80    81    1
    66     1     2    1
    67    16    15    1
    68    16    19    1
    69    20    19    1
    70    11    10    1
    71    11    15   am
    72    10     9    1
    73    83    84    1
    74     9     3   am
    75     3     4    2
    76     3     2    1
    77    81    82    2
    78    81    86   am
    79     2     5    1
    80    86    87    1
    81     8     6   am
    82   100    99   ar
    83    96    97    2
    84    96    95    1
    85     5     6    1
    86    92    91   ar
    87    94    95    1
    88     6     7    2
    89    25    26    1
    90    88    87    1
    91    88    89    2
    92    95    98    1
    93    87    90    1
    94    99   101   ar
    95    99    98    1
    96    91    90    1
    97    91    93   ar
    98    31    29    1
    99    26    29    1
   100    26    27    1
   101    29    30    1
   102    27    28    2
