@<TRIPOS>MOLECULE
tmp/2vudD00.pdb
 98 92 0 0 0
SMALL
GASTEIGER

@<TRIPOS>ATOM
      1  N          5.9910   17.1750   14.0300 N.3    21  ASN21      -0.1225
      2  CA         6.3750   17.7520   15.3120 C.3    21  ASN21       0.1785
      3  C          6.9880   19.1220   15.0910 C.2    21  ASN21       0.2598
      4  O          8.1730   19.3320   15.3780 O.2    21  ASN21      -0.2718
      5  CB         7.3830   16.8570   16.0720 C.3    21  ASN21       0.1169
      6  CG         6.7480   15.6050   16.5880 C.2    21  ASN21       0.2627
      7  OD1        5.9670   15.6420   17.5460 O.2    21  ASN21      -0.2716
      8  ND2        7.0710   14.4590   15.9320 N.am   21  ASN21      -0.0877
      9  N          6.1840   20.0480   14.5690 N.am   22  SER22      -0.1938
     10  CA         6.6860   21.4080   14.2200 C.3    22  SER22       0.2055
     11  C          5.5320   22.4050   14.1010 C.2    22  SER22       0.2644
     12  O          4.4190   22.0180   13.7700 O.2    22  SER22      -0.2714
     13  CB         7.4580   21.3760   12.9080 C.3    22  SER22       0.2130
     14  OG         7.8320   22.6690   12.4920 O.3    22  SER22      -0.2179
     15  N          5.8230   23.6820   14.3410 N.am   23  SER23      -0.1935
     16  CA         4.8510   24.7330   14.1050 C.3    23  SER23       0.2055
     17  C          4.6250   25.0070   12.6020 C.2    23  SER23       0.2643
     18  O          3.6350   25.6700   12.2260 O.2    23  SER23      -0.2714
     19  CB         5.2300   26.0310   14.8560 C.3    23  SER23       0.2130
     20  OG         6.5720   26.4230   14.5640 O.3    23  SER23      -0.2179
     21  N          5.5300   24.5150   11.7580 N.am   24  GLY24      -0.1954
     22  CA         5.3900   24.6260   10.2950 C.3    24  GLY24       0.1869
     23  C          4.6520   23.4490    9.6620 C.2    24  GLY24       0.2309
     24  O          4.8110   22.3040   10.0810 O.2    24  GLY24      -0.2863
     25  N          2.2730   19.7250   16.6060 N.3    45  THR45      -0.1218
     26  CA         3.3890   19.6780   17.5460 C.3    45  THR45       0.1862
     27  C          3.2550   18.5240   18.5660 C.2    45  THR45       0.2287
     28  O          3.9300   18.4920   19.6030 O.2    45  THR45      -0.2866
     29  CB         3.6010   21.0370   18.2810 C.3    45  THR45       0.1770
     30  OG1        2.3740   21.4280   18.9010 O.3    45  THR45      -0.2211
     31  CG2        4.0340   22.1000   17.3060 C.3    45  THR45       0.0375
     32  N          9.0300   22.4120    3.8230 N.3    69  VAL69      -0.1231
     33  CA         8.1500   23.2690    4.6050 C.3    69  VAL69       0.1692
     34  C          8.0880   24.6310    3.9110 C.2    69  VAL69       0.2592
     35  O          9.1010   25.3090    3.7900 O.2    69  VAL69      -0.2718
     36  CB         8.6540   23.4040    6.0480 C.3    69  VAL69       0.0266
     37  CG1        7.7580   24.3630    6.8350 C.3    69  VAL69       0.0020
     38  CG2        8.7080   22.0350    6.7330 C.3    69  VAL69       0.0020
     39  N          6.8920   24.9960    3.4720 N.am   70  ASN70      -0.1974
     40  CA         6.6580   26.2050    2.6780 C.3    70  ASN70       0.1688
     41  C          7.6300   26.3570    1.5030 C.2    70  ASN70       0.2292
     42  O          8.1290   27.4590    1.2360 O.2    70  ASN70      -0.2864
     43  CB         6.6720   27.4410    3.5750 C.3    70  ASN70       0.1181
     44  CG         5.5930   27.3980    4.6420 C.2    70  ASN70       0.2629
     45  OD1        4.4520   26.9520    4.4030 O.2    70  ASN70      -0.2716
     46  ND2        5.9430   27.8730    5.8340 N.am   70  ASN70      -0.0877
     47  N         14.7100   18.1060    9.5090 N.3    95  GLU95      -0.1231
     48  CA        14.8530   19.3590   10.2570 C.3    95  GLU95       0.1699
     49  C         14.4660   20.5680    9.3780 C.2    95  GLU95       0.2592
     50  O         14.9580   20.7190    8.2640 O.2    95  GLU95      -0.2718
     51  CB        16.3050   19.5010   10.7300 C.3    95  GLU95       0.0402
     52  CG        16.5890   20.7800   11.5070 C.3    95  GLU95       0.1161
     53  CD        15.7020   20.9000   12.7820 C.2    95  GLU95       0.3649
     54  OE1       15.5370   19.8900   13.5290 O.co2  95  GLU95      -0.2457
     55  OE2       15.1700   21.9980   13.0530 O.co2  95  GLU95      -0.2457
     56  N         13.5790   21.4160    9.8930 N.am   96  ASP96      -0.1960
     57  CA        13.1010   22.5580    9.1400 C.3    96  ASP96       0.1840
     58  C         13.6000   23.8700    9.7460 C.2    96  ASP96       0.2623
     59  O         13.3920   24.9290    9.1570 O.2    96  ASP96      -0.2715
     60  CB        11.5450   22.5300    9.0010 C.3    96  ASP96       0.1450
     61  CG        10.8130   22.6590   10.3470 C.2    96  ASP96       0.3671
     62  OD1       11.3790   23.2220   11.3050 O.co2  96  ASP96      -0.2456
     63  OD2        9.6350   22.2230   10.4560 O.co2  96  ASP96      -0.2456
     64  N         14.2360   23.7970   10.9070 N.am   97  GLY97      -0.1940
     65  CA        14.6470   24.9920   11.6670 C.3    97  GLY97       0.2014
     66  C         16.0920   25.0160   12.1000 C.2    97  GLY97       0.2640
     67  O         16.9710   24.6170   11.3440 O.2    97  GLY97      -0.2714
     68  N         16.3280   25.4820   13.3350 N.am   98  THR98      -0.1936
     69  CA        17.6660   25.6820   13.8730 C.3    98  THR98       0.2028
     70  C         17.9750   24.7830   15.0880 C.2    98  THR98       0.2642
     71  O         19.1300   24.6330   15.4480 O.2    98  THR98      -0.2714
     72  CB        17.8940   27.1670   14.2950 C.3    98  THR98       0.1808
     73  OG1       16.8350   27.5600   15.1810 O.3    98  THR98      -0.2208
     74  CG2       17.8860   28.0770   13.0580 C.3    98  THR98       0.0379
     75  N         16.9500   24.1670   15.6860 N.am   99  ASP99      -0.1971
     76  CA        17.1240   23.4310   16.9490 C.3    99  ASP99       0.1709
     77  C         17.7020   22.0340   16.7780 C.2    99  ASP99       0.2293
     78  O         18.1710   21.4430   17.7420 O.2    99  ASP99      -0.2864
     79  CB        15.8330   23.4240   17.7950 C.3    99  ASP99       0.1436
     80  CG        14.7150   22.6140   17.1730 C.2    99  ASP99       0.3671
     81  OD1       14.7460   22.3980   15.9360 O.co2  99  ASP99      -0.2456
     82  OD2       13.7780   22.2390   17.9140 O.co2  99  ASP99      -0.2456
     83  N         16.4190   19.0940   16.2910 N.3   101  ASP101     -0.1239
     84  CA        15.7550   17.9290   16.9130 C.3   101  ASP101      0.1674
     85  C         15.3350   16.8640   15.8460 C.2   101  ASP101      0.2266
     86  O         14.9230   15.7550   16.2010 O.2   101  ASP101     -0.2867
     87  CB        14.5630   18.3140   17.8170 C.3   101  ASP101      0.1410
     88  CG        13.4260   19.0180   17.0820 C.2   101  ASP101      0.3668
     89  OD1       13.5180   19.3100   15.8580 O.co2 101  ASP101     -0.2456
     90  OD2       12.4050   19.3040   17.7740 O.co2 101  ASP101     -0.2456
     91  N         10.7380   17.0860   12.9470 N.3   104  ASP104     -0.1239
     92  CA         9.7040   17.9790   12.3770 C.3   104  ASP104      0.1674
     93  C          8.7500   17.2220   11.4850 C.2   104  ASP104      0.2266
     94  O          7.5260   17.4200   11.5190 O.2   104  ASP104     -0.2867
     95  CB        10.3810   19.1270   11.6190 C.3   104  ASP104      0.1410
     96  CG        11.2550   19.9520   12.5430 C.2   104  ASP104      0.3668
     97  OD1       10.9180   20.0720   13.7580 O.co2 104  ASP104     -0.2456
     98  OD2       12.3120   20.4330   12.1140 O.co2 104  ASP104     -0.2456
@<TRIPOS>BOND
     1    42    41    2
     2    41    40    1
     3    40    39    1
     4    40    43    1
     5    39    34   am
     6    43    44    1
     7    35    34    2
     8    32    33    1
     9    34    33    1
    10    45    44    2
    11    33    36    1
    12    44    46   am
    13    36    38    1
    14    36    37    1
    15    50    49    2
    16    60    57    1
    17    60    61    1
    18    57    58    1
    19    57    56    1
    20    59    58    2
    21    49    56   am
    22    49    48    1
    23    47    48    1
    24    23    24    2
    25    23    22    1
    26    58    64   am
    27    48    51    1
    28    22    21    1
    29    61    63   ar
    30    61    62   ar
    31    51    52    1
    32    64    65    1
    33    67    66    2
    34    93    94    2
    35    93    92    1
    36    52    53    1
    37    95    92    1
    38    95    96    1
    39    65    66    1
    40    21    17   am
    41    66    68   am
    42    98    96   ar
    43    18    17    2
    44    92    91    1
    45    14    13    1
    46    96    97   ar
    47    17    16    1
    48    53    55   ar
    49    53    54   ar
    50    13    10    1
    51    74    72    1
    52    68    69    1
    53    12    11    2
    54    69    72    1
    55    69    70    1
    56     1     2    1
    57    11    10    1
    58    11    15   am
    59    16    15    1
    60    16    19    1
    61    10     9    1
    62    72    73    1
    63    20    19    1
    64     9     3   am
    65    70    71    2
    66    70    75   am
    67     3     2    1
    68     3     4    2
    69     2     5    1
    70    75    76    1
    71    85    86    2
    72    85    84    1
    73    89    88   ar
    74     8     6   am
    75    81    80   ar
    76     5     6    1
    77    83    84    1
    78     6     7    2
    79    25    26    1
    80    77    76    1
    81    77    78    2
    82    84    87    1
    83    76    79    1
    84    88    90   ar
    85    88    87    1
    86    80    79    1
    87    80    82   ar
    88    31    29    1
    89    26    29    1
    90    26    27    1
    91    29    30    1
    92    27    28    2
