@<TRIPOS>MOLECULE
tmp/2vueA00.pdb
 216 209 0 0 0
SMALL
GASTEIGER

@<TRIPOS>ATOM
      1  N         -6.5340   18.6660    5.1840 N.3   100  ARG100     -0.1231
      2  CA        -5.0930   18.4580    5.2110 C.3   100  ARG100      0.1694
      3  C         -4.5730   18.6830    6.6290 C.2   100  ARG100      0.2592
      4  O         -4.5590   19.8130    7.1240 O.2   100  ARG100     -0.2718
      5  CB        -4.3990   19.4200    4.2430 C.3   100  ARG100      0.0321
      6  CG        -3.0160   18.9900    3.8560 C.3   100  ARG100      0.0489
      7  CD        -2.3170   20.0690    3.0450 C.3   100  ARG100      0.2205
      8  NE        -2.0150   21.2530    3.8520 N.pl3 100  ARG100     -0.0865
      9  CZ        -1.0160   21.3340    4.7280 C.cat 100  ARG100      0.5346
     10  NH1       -0.1850   20.3060    4.8970 N.pl3 100  ARG100      0.1354
     11  NH2       -0.8360   22.4530    5.4180 N.pl3 100  ARG100      0.1354
     12  N         -4.1500   17.6050    7.2820 N.am  101  LEU101     -0.1966
     13  CA        -3.6350   17.6960    8.6420 C.3   101  LEU101      0.1728
     14  C         -2.2660   18.3780    8.6350 C.2   101  LEU101      0.2616
     15  O         -1.3550   17.9620    7.9170 O.2   101  LEU101     -0.2715
     16  CB        -3.5800   16.3110    9.2870 C.3   101  LEU101      0.0311
     17  CG        -3.2860   16.2740   10.7870 C.3   101  LEU101      0.0022
     18  CD1       -4.4660   16.8150   11.5800 C.3   101  LEU101      0.0001
     19  CD2       -2.9450   14.8600   11.2330 C.3   101  LEU101      0.0001
     20  N         -2.1310   19.4340    9.4310 N.am  102  VAL102     -0.1963
     21  CA        -0.8780   20.1790    9.5130 C.3   102  VAL102      0.1727
     22  C         -0.3740   20.2770   10.9500 C.2   102  VAL102      0.2616
     23  O         -1.1350   20.5900   11.8670 O.2   102  VAL102     -0.2715
     24  CB        -1.0410   21.6050    8.9380 C.3   102  VAL102      0.0290
     25  CG1       -2.1910   22.3220    9.6370 C.3   102  VAL102      0.0023
     26  CG2        0.2620   22.3840    9.0990 C.3   102  VAL102      0.0023
     27  N          0.9190   20.0220   11.1300 N.am  103  ARG103     -0.1964
     28  CA         1.5490   20.0540   12.4470 C.3   103  ARG103      0.1714
     29  C          1.8650   21.4690   12.9280 C.2   103  ARG103      0.2458
     30  O          2.5380   22.2300   12.2310 O.2   103  ARG103     -0.2730
     31  CB         2.8510   19.2530   12.4210 C.3   103  ARG103      0.0347
     32  CG         2.7360   17.8580   11.8410 C.3   103  ARG103      0.0492
     33  CD         4.1150   17.2410   11.7210 C.3   103  ARG103      0.2205
     34  NE         4.0870   15.9210   11.1030 N.pl3 103  ARG103     -0.0865
     35  CZ         5.1750   15.2330   10.7720 C.cat 103  ARG103      0.5346
     36  NH1        6.3780   15.7440   11.0020 N.pl3 103  ARG103      0.1354
     37  NH2        5.0640   14.0380   10.2070 N.pl3 103  ARG103      0.1354
     38  N          1.3850   21.8380   14.1320 N.am  104  PRO104     -0.2727
     39  CA         1.6390   23.1730   14.6870 C.3   104  PRO104      0.1402
     40  C          3.1220   23.3000   15.0100 C.2   104  PRO104      0.2269
     41  O          3.9220   22.4600   14.5960 O.2   104  PRO104     -0.2865
     42  CB         0.7800   23.1950   15.9490 C.3   104  PRO104      0.0296
     43  CG        -0.3390   22.2510   15.6220 C.3   104  PRO104      0.0237
     44  CD         0.3960   21.1170   14.9530 C.3   104  PRO104      0.0939
     45  N          3.6300   23.6450   20.6970 N.3   108  VAL108     -0.1231
     46  CA         2.2300   23.3270   20.9590 C.3   108  VAL108      0.1692
     47  C          2.0310   21.8170   21.0500 C.2   108  VAL108      0.2591
     48  O          1.1060   21.3420   21.7140 O.2   108  VAL108     -0.2718
     49  CB         1.3030   23.8750   19.8580 C.3   108  VAL108      0.0266
     50  CG1       -0.1550   23.5890   20.2150 C.3   108  VAL108      0.0020
     51  CG2        1.5250   25.3690   19.6900 C.3   108  VAL108      0.0020
     52  N          2.9050   21.0680   20.3830 N.am  109  MET109     -0.1979
     53  CA         2.8250   19.6120   20.3820 C.3   109  MET109      0.1605
     54  C          3.3350   19.0350   21.6930 C.2   109  MET109      0.2287
     55  O          2.6750   18.2030   22.3110 O.2   109  MET109     -0.2864
     56  CB         3.6220   19.0240   19.2070 C.3   109  MET109      0.0413
     57  CG         3.0650   19.3740   17.8210 C.3   109  MET109      0.0598
     58  SD         3.8210   18.4120   16.4790 S.3   109  MET109     -0.1393
     59  CE         5.3740   19.3340   16.1960 C.3   109  MET109      0.0692
     60  N          0.7990   19.5300   24.5080 N.3   112  ALA112     -0.1245
     61  CA        -0.3100   18.5990   24.3170 C.3   112  ALA112      0.1562
     62  C          0.1090   17.1940   24.7150 C.2   112  ALA112      0.2260
     63  O         -0.6590   16.4620   25.3420 O.2   112  ALA112     -0.2867
     64  CB        -0.7600   18.6210   22.8530 C.3   112  ALA112      0.0290
     65  N         -3.1990   12.4530   23.4010 N.3   120  PHE120     -0.1241
     66  CA        -2.3210   12.8260   22.3020 C.3   120  PHE120      0.1605
     67  C         -2.0170   11.6010   21.4230 C.2   120  PHE120      0.2264
     68  O         -1.7470   11.7330   20.2310 O.2   120  PHE120     -0.2867
     69  CB        -1.0210   13.3900   22.8680 C.3   120  PHE120      0.0534
     70  CG        -0.1170   13.9810   21.8410 C.ar  120  PHE120     -0.0203
     71  CD1       -0.3840   15.2370   21.3050 C.ar  120  PHE120     -0.0042
     72  CD2        1.0220   13.2930   21.4220 C.ar  120  PHE120     -0.0042
     73  CE1        0.4730   15.8030   20.3670 C.ar  120  PHE120     -0.0003
     74  CE2        1.8880   13.8460   20.4850 C.ar  120  PHE120     -0.0003
     75  CZ         1.6150   15.1040   19.9550 C.ar  120  PHE120     -0.0000
     76  N         -5.3310   10.2570   19.4200 N.3   123  LYS123     -0.1231
     77  CA        -5.5880   11.1420   18.2840 C.3   123  LYS123      0.1693
     78  C         -4.6970   10.7940   17.0880 C.2   123  LYS123      0.2592
     79  O         -5.0850   10.9880   15.9330 O.2   123  LYS123     -0.2718
     80  CB        -5.3660   12.5980   18.7030 C.3   123  LYS123      0.0285
     81  CG        -5.9840   13.6150   17.7660 C.3   123  LYS123      0.0035
     82  CD        -6.6510   14.7360   18.5620 C.3   123  LYS123      0.0206
     83  CE        -7.2830   15.7710   17.6370 C.3   123  LYS123      0.1093
     84  NZ        -8.0760   16.7940   18.3850 N.3   123  LYS123     -0.1314
     85  N         -3.4980   10.2980   17.3820 N.am  124  TYR124     -0.1976
     86  CA        -2.5490    9.8800   16.3600 C.3   124  TYR124      0.1639
     87  C         -3.1820    8.7070   15.6110 C.2   124  TYR124      0.2290
     88  O         -3.3200    8.7370   14.3930 O.2   124  TYR124     -0.2864
     89  CB        -1.2540    9.4280   17.0290 C.3   124  TYR124      0.0560
     90  CG        -0.2710    8.7190   16.1260 C.ar  124  TYR124     -0.0198
     91  CD1        0.5440    9.4310   15.2510 C.ar  124  TYR124     -0.0009
     92  CD2       -0.1240    7.3340   16.1810 C.ar  124  TYR124     -0.0009
     93  CE1        1.4940    8.7820   14.4590 C.ar  124  TYR124      0.0417
     94  CE2        0.8180    6.6770   15.3950 C.ar  124  TYR124      0.0417
     95  CZ         1.6280    7.4060   14.5380 C.ar  124  TYR124      0.1957
     96  OH         2.6010    6.7610   13.7970 O.3   124  TYR124     -0.2866
     97  N         -6.3620    9.8390   13.5400 N.3   127  GLU127     -0.1231
     98  CA        -6.0600   10.5940   12.3290 C.3   127  GLU127      0.1699
     99  C         -5.4050    9.7220   11.2660 C.2   127  GLU127      0.2592
    100  O         -5.5910    9.9480   10.0730 O.2   127  GLU127     -0.2718
    101  CB        -5.1320   11.7710   12.6360 C.3   127  GLU127      0.0402
    102  CG        -5.7070   12.8310   13.5750 C.3   127  GLU127      0.1161
    103  CD        -7.0270   13.4140   13.0920 C.2   127  GLU127      0.3649
    104  OE1       -7.2950   13.3890   11.8680 O.co2 127  GLU127     -0.2457
    105  OE2       -7.7920   13.9130   13.9450 O.co2 127  GLU127     -0.2457
    106  N         -4.6240    8.7370   11.6930 N.am  128  ILE128     -0.1980
    107  CA        -3.9690    7.8500   10.7530 C.3   128  ILE128      0.1595
    108  C         -4.9250    6.7640   10.2700 C.2   128  ILE128      0.2287
    109  O         -4.9830    6.4640    9.0790 O.2   128  ILE128     -0.2864
    110  CB        -2.7150    7.1780   11.3740 C.3   128  ILE128      0.0276
    111  CG1       -1.6640    8.2350   11.7240 C.3   128  ILE128      0.0022
    112  CG2       -2.1430    6.1690   10.4160 C.3   128  ILE128      0.0022
    113  CD1       -1.3920    9.2230   10.6300 C.3   128  ILE128      0.0001
    114  N         -7.6720    7.8940    7.6150 N.3   131  ARG131     -0.1231
    115  CA        -7.1830    8.2410    6.2810 C.3   131  ARG131      0.1694
    116  C         -6.6020    7.0190    5.5540 C.2   131  ARG131      0.2592
    117  O         -6.4090    7.0480    4.3380 O.2   131  ARG131     -0.2718
    118  CB        -6.1100    9.3340    6.3580 C.3   131  ARG131      0.0321
    119  CG        -6.6100   10.6760    6.8630 C.3   131  ARG131      0.0489
    120  CD        -5.5520   11.7580    6.6880 C.3   131  ARG131      0.2205
    121  NE        -6.0420   13.0640    7.1260 N.pl3 131  ARG131     -0.0865
    122  CZ        -6.3180   13.3710    8.3900 C.cat 131  ARG131      0.5346
    123  NH1       -6.1480   12.4690    9.3420 N.pl3 131  ARG131      0.1354
    124  NH2       -6.7730   14.5720    8.7070 N.pl3 131  ARG131      0.1354
    125  N         -6.3230    5.9520    6.3010 N.am  132  HIS132     -0.1976
    126  CA        -5.7580    4.7260    5.7300 C.3   132  HIS132      0.1656
    127  C         -6.5230    3.5620    6.3220 C.2   132  HIS132      0.2291
    128  O         -6.0120    2.8330    7.1680 O.2   132  HIS132     -0.2864
    129  CB        -4.2730    4.6170    6.0780 C.3   132  HIS132      0.0771
    130  CG        -3.4300    5.7080    5.4860 C.ar  132  HIS132      0.0820
    131  ND1       -3.0080    5.6990    4.1700 N.ar  132  HIS132     -0.2267
    132  CD2       -2.9230    6.8360    6.0340 C.ar  132  HIS132      0.1154
    133  CE1       -2.2710    6.7720    3.9390 C.ar  132  HIS132      0.1986
    134  NE2       -2.2040    7.4790    5.0560 N.ar  132  HIS132     -0.2212
    135  N         -4.8790    0.2270    6.7450 N.3   135  PHE135     -0.1241
    136  CA        -3.5950    0.2020    7.4300 C.3   135  PHE135      0.1605
    137  C         -3.5190   -1.0540    8.2950 C.2   135  PHE135      0.2264
    138  O         -4.4650   -1.3760    9.0060 O.2   135  PHE135     -0.2867
    139  CB        -3.4100    1.4440    8.3060 C.3   135  PHE135      0.0534
    140  CG        -1.9630    1.8030    8.5370 C.ar  135  PHE135     -0.0203
    141  CD1       -1.1880    1.0890    9.4430 C.ar  135  PHE135     -0.0042
    142  CD2       -1.3560    2.8160    7.8000 C.ar  135  PHE135     -0.0042
    143  CE1        0.1650    1.3700    9.6120 C.ar  135  PHE135     -0.0003
    144  CE2        0.0020    3.1030    7.9670 C.ar  135  PHE135     -0.0003
    145  CZ         0.7590    2.3750    8.8750 C.ar  135  PHE135     -0.0000
    146  N          0.2910   -0.4220   13.2250 N.3   140  LEU140     -0.1245
    147  CA        -0.0400    0.9480   13.6050 C.3   140  LEU140      0.1561
    148  C          0.2840    1.1320   15.0720 C.2   140  LEU140      0.2260
    149  O          0.5090    2.2480   15.5300 O.2   140  LEU140     -0.2867
    150  CB        -1.5270    1.2480   13.3710 C.3   140  LEU140      0.0270
    151  CG        -1.9430    2.7140   13.5300 C.3   140  LEU140      0.0019
    152  CD1       -1.0270    3.5930   12.7040 C.3   140  LEU140      0.0001
    153  CD2       -3.3950    2.8990   13.0920 C.3   140  LEU140      0.0001
    154  N          4.1280    1.7270   15.2060 N.3   143  PHE143     -0.1241
    155  CA         4.4550    3.1130   14.8700 C.3   143  PHE143      0.1605
    156  C          4.0700    4.0690   16.0030 C.2   143  PHE143      0.2264
    157  O          4.7500    5.0690   16.2310 O.2   143  PHE143     -0.2867
    158  CB         3.7450    3.5630   13.5800 C.3   143  PHE143      0.0534
    159  CG         4.3000    2.9420   12.3210 C.ar  143  PHE143     -0.0203
    160  CD1        3.6450    1.8860   11.6970 C.ar  143  PHE143     -0.0042
    161  CD2        5.4900    3.4070   11.7590 C.ar  143  PHE143     -0.0042
    162  CE1        4.1670    1.3010   10.5350 C.ar  143  PHE143     -0.0003
    163  CE2        6.0160    2.8210   10.5910 C.ar  143  PHE143     -0.0003
    164  CZ         5.3490    1.7720    9.9880 C.ar  143  PHE143     -0.0000
    165  N          6.3490    6.7830   17.7800 N.3   147  TYR147     -0.1241
    166  CA         5.8870    8.1670   17.7870 C.3   147  TYR147      0.1605
    167  C          6.0660    8.7020   19.2170 C.2   147  TYR147      0.2264
    168  O          6.6680    9.7570   19.4400 O.2   147  TYR147     -0.2867
    169  CB         4.4090    8.1900   17.3960 C.3   147  TYR147      0.0534
    170  CG         3.7970    9.5540   17.2230 C.ar  147  TYR147     -0.0201
    171  CD1        4.1780   10.3800   16.1690 C.ar  147  TYR147     -0.0009
    172  CD2        2.7840    9.9980   18.0740 C.ar  147  TYR147     -0.0009
    173  CE1        3.5580   11.6160   15.9590 C.ar  147  TYR147      0.0417
    174  CE2        2.1600   11.2290   17.8720 C.ar  147  TYR147      0.0417
    175  CZ         2.5530   12.0260   16.8110 C.ar  147  TYR147      0.1957
    176  OH         1.9250   13.2220   16.5790 O.3   147  TYR147     -0.2866
    177  N          9.6400   12.5630   12.7070 N.3   168  LEU168     -0.1245
    178  CA         8.2220   12.4990   12.4000 C.3   168  LEU168      0.1561
    179  C          8.0460   12.3690   10.8930 C.2   168  LEU168      0.2260
    180  O          6.9900   11.9480   10.4200 O.2   168  LEU168     -0.2867
    181  CB         7.4860   13.7550   12.8850 C.3   168  LEU168      0.0270
    182  CG         7.3690   14.0420   14.3860 C.3   168  LEU168      0.0019
    183  CD1        6.4560   15.2340   14.6030 C.3   168  LEU168      0.0001
    184  CD2        6.8200   12.8340   15.1030 C.3   168  LEU168      0.0001
    185  N          8.9130    8.8140    9.9250 N.3   171  LEU171     -0.1231
    186  CA         7.7600    8.0130   10.3270 C.3   171  LEU171      0.1693
    187  C          6.6370    8.1160    9.3050 C.2   171  LEU171      0.2591
    188  O          6.0940    7.1040    8.8620 O.2   171  LEU171     -0.2718
    189  CB         7.2260    8.4660   11.6900 C.3   171  LEU171      0.0284
    190  CG         7.9020    7.9300   12.9490 C.3   171  LEU171      0.0019
    191  CD1        7.2610    8.5620   14.1660 C.3   171  LEU171      0.0001
    192  CD2        7.7700    6.4200   13.0020 C.3   171  LEU171      0.0001
    193  N          6.2870    9.3420    8.9430 N.am  172  ARG172     -0.1980
    194  CA         5.2240    9.5780    7.9800 C.3   172  ARG172      0.1597
    195  C          5.4780    8.8460    6.6700 C.2   172  ARG172      0.2287
    196  O          4.5490    8.3090    6.0690 O.2   172  ARG172     -0.2864
    197  CB         5.0900   11.0740    7.7020 C.3   172  ARG172      0.0334
    198  CG         3.9150   11.4410    6.8290 C.3   172  ARG172      0.0492
    199  CD         3.5980   12.9110    6.9980 C.3   172  ARG172      0.2205
    200  NE         4.0860   13.7220    5.8880 N.pl3 172  ARG172     -0.0865
    201  CZ         4.6990   14.8950    6.0290 C.cat 172  ARG172      0.5346
    202  NH1        4.9130   15.3990    7.2400 N.pl3 172  ARG172      0.1354
    203  NH2        5.0860   15.5670    4.9520 N.pl3 172  ARG172      0.1354
    204  N          5.3690    5.1500    6.9690 N.3   175  GLY175     -0.1210
    205  CA         3.9740    4.8300    7.1640 C.3   175  GLY175      0.1956
    206  C          3.1990    4.7420    5.8600 C.2   175  GLY175      0.2611
    207  O          2.3510    3.8640    5.6850 O.2   175  GLY175     -0.2717
    208  N          3.4730    5.6460    4.9320 N.am  176  LYS176     -0.1979
    209  CA         2.7650    5.6200    3.6600 C.3   176  LYS176      0.1596
    210  C          3.1290    4.3590    2.8550 C.2   176  LYS176      0.2287
    211  O          2.2760    3.7440    2.2080 O.2   176  LYS176     -0.2864
    212  CB         3.0720    6.9020    2.8800 C.3   176  LYS176      0.0298
    213  CG         2.5650    8.1500    3.6050 C.3   176  LYS176      0.0038
    214  CD         2.7410    9.4400    2.8040 C.3   176  LYS176      0.0206
    215  CE         1.7840    9.5280    1.6100 C.3   176  LYS176      0.1093
    216  NZ         1.7780   10.8940    0.9780 N.3   176  LYS176     -0.1314
@<TRIPOS>BOND
     1   216   215    1
     2   215   214    1
     3   211   210    2
     4   214   213    1
     5   210   209    1
     6   212   213    1
     7   212   209    1
     8     7     8    1
     9     7     6    1
    10   209   208    1
    11     8     9    2
    12     6     5    1
    13   133   131   ar
    14   133   134   ar
    15   131   130   ar
    16     5     2    1
    17   117   116    2
    18     9    10    1
    19     9    11    1
    20   208   206   am
    21   203   201    1
    22   134   132   ar
    23     1     2    1
    24     2     3    1
    25   130   132   ar
    26   130   129    1
    27   116   115    1
    28   116   125   am
    29   207   206    2
    30   126   129    1
    31   126   125    1
    32   126   127    1
    33   206   205    1
    34   200   201    2
    35   200   199    1
    36   201   202    1
    37   196   195    2
    38   115   118    1
    39   115   114    1
    40   127   128    2
    41   118   119    1
    42     3     4    2
    43     3    12   am
    44   195   194    1
    45   120   119    1
    46   120   121    1
    47   135   136    1
    48   198   199    1
    49   198   197    1
    50   204   205    1
    51   121   122    2
    52    12    13    1
    53   136   137    1
    54   136   139    1
    55   197   194    1
    56   142   144   ar
    57   142   140   ar
    58    15    14    2
    59   144   145   ar
    60   194   193    1
    61   137   138    2
    62   139   140    1
    63   122   124    1
    64   122   123    1
    65   140   141   ar
    66    14    13    1
    67    14    20   am
    68    13    16    1
    69   188   187    2
    70   145   143   ar
    71    24    26    1
    72    24    21    1
    73    24    25    1
    74   193   187   am
    75   109   108    2
    76    16    17    1
    77   187   186    1
    78    20    21    1
    79   141   143   ar
    80    21    22    1
    81   185   186    1
    82   164   162   ar
    83   164   163   ar
    84   100    99    2
    85    37    35    1
    86   108   107    1
    87   186   189    1
    88   112   110    1
    89   180   179    2
    90   162   160   ar
    91   163   161   ar
    92   113   111    1
    93   107   110    1
    94   107   106    1
    95    35    36    1
    96    35    34    2
    97    17    19    1
    98    17    18    1
    99   179   178    1
   100    22    27   am
   101    22    23    2
   102    34    33    1
   103    27    28    1
   104    99   106   am
   105    99    98    1
   106   110   111    1
   107   189   190    1
   108   160   159   ar
   109    33    32    1
   110   161   159   ar
   111    32    31    1
   112   104   103   ar
   113    30    29    2
   114   159   158    1
   115    98   101    1
   116    98    97    1
   117   178   177    1
   118   178   181    1
   119    31    28    1
   120    28    29    1
   121   101   102    1
   122   152   151    1
   123   181   182    1
   124    29    38   am
   125   190   192    1
   126   190   191    1
   127   103   102    1
   128   103   105   ar
   129   153   151    1
   130   146   147    1
   131   150   151    1
   132   150   147    1
   133   158   155    1
   134   147   148    1
   135    96    95    1
   136    38    39    1
   137    38    44    1
   138   182   183    1
   139   182   184    1
   140    88    87    2
   141    93    95   ar
   142    93    91   ar
   143    95    94   ar
   144    41    40    2
   145    39    40    1
   146    39    42    1
   147   155   154    1
   148   155   156    1
   149    44    43    1
   150   148   149    2
   151    91    90   ar
   152    94    92   ar
   153    87    86    1
   154    43    42    1
   155    79    78    2
   156   173   171   ar
   157   173   175   ar
   158   156   157    2
   159    90    92   ar
   160    90    89    1
   161   171   170   ar
   162    59    58    1
   163    86    89    1
   164    86    85    1
   165    58    57    1
   166   176   175    1
   167   175   174   ar
   168    78    85   am
   169    78    77    1
   170   170   169    1
   171   170   172   ar
   172   169   166    1
   173    83    84    1
   174    83    82    1
   175    81    82    1
   176    81    80    1
   177   165   166    1
   178   166   167    1
   179    57    56    1
   180   174   172   ar
   181    77    80    1
   182    77    76    1
   183    56    53    1
   184   167   168    2
   185    51    49    1
   186    49    50    1
   187    49    46    1
   188    75    73   ar
   189    75    74   ar
   190    68    67    2
   191    73    71   ar
   192    53    52    1
   193    53    54    1
   194    52    47   am
   195    74    72   ar
   196    45    46    1
   197    46    47    1
   198    47    48    2
   199    71    70   ar
   200    72    70   ar
   201    67    66    1
   202    54    55    2
   203    70    69    1
   204    66    69    1
   205    66    65    1
   206    64    61    1
   207    61    60    1
   208    61    62    1
   209    62    63    2
