@<TRIPOS>MOLECULE
tmp/2vufA01.pdb
 118 113 0 0 0
SMALL
GASTEIGER

@<TRIPOS>ATOM
      1  N         -6.4850   30.8950  -11.1910 N.3   495  PHE495     -0.1241
      2  CA        -5.1500   31.3430  -10.9360 C.3   495  PHE495      0.1605
      3  C         -4.9620   32.2450   -9.7310 C.2   495  PHE495      0.2264
      4  O         -3.8280   32.5500   -9.4050 O.2   495  PHE495     -0.2867
      5  CB        -4.6170   32.0090  -12.2080 C.3   495  PHE495      0.0534
      6  CG        -3.1380   32.2430  -12.2010 C.ar  495  PHE495     -0.0203
      7  CD1       -2.2450   31.2170  -12.0680 C.ar  495  PHE495     -0.0042
      8  CD2       -2.6810   33.5040  -12.2320 C.ar  495  PHE495     -0.0042
      9  CE1       -0.8460   31.5170  -11.9940 C.ar  495  PHE495     -0.0003
     10  CE2       -1.2900   33.7890  -12.2060 C.ar  495  PHE495     -0.0003
     11  CZ        -0.4030   32.7700  -12.0920 C.ar  495  PHE495     -0.0000
     12  N         -1.0520   31.6230   -4.7750 N.3   499  ILE499     -0.1231
     13  CA         0.0470   30.7750   -5.1920 C.3   499  ILE499      0.1692
     14  C          1.4510   31.3390   -5.0720 C.2   499  ILE499      0.2592
     15  O          2.3690   30.8100   -5.6890 O.2   499  ILE499     -0.2718
     16  CB        -0.0920   30.3700   -6.6410 C.3   499  ILE499      0.0266
     17  CG1        0.1360   31.5930   -7.5020 C.3   499  ILE499      0.0019
     18  CG2       -1.4860   29.8260   -6.9220 C.3   499  ILE499      0.0020
     19  CD1        0.4460   31.2530   -8.8980 C.3   499  ILE499      0.0001
     20  N          1.6590   32.4100   -4.3260 N.am  500  CYS500     -0.1970
     21  CA         3.0260   32.9080   -4.2260 C.3   500  CYS500      0.1712
     22  C          3.4810   32.6360   -2.8180 C.2   500  CYS500      0.2296
     23  O          4.6010   32.9370   -2.4270 O.2   500  CYS500     -0.2864
     24  CB         3.0870   34.4050   -4.5210 C.3   500  CYS500      0.0983
     25  SG         2.0640   34.9930   -5.9060 S.3   500  CYS500     -0.0798
     26  N          2.5070   29.3700   -1.0800 N.3   502  LEU502     -0.1245
     27  CA         2.7710   27.9350   -1.0120 C.3   502  LEU502      0.1561
     28  C          4.2450   27.5220   -1.0520 C.2   502  LEU502      0.2260
     29  O          5.0860   28.1710   -1.6910 O.2   502  LEU502     -0.2867
     30  CB         2.0070   27.2230   -2.1320 C.3   502  LEU502      0.0270
     31  CG         2.5810   27.3370   -3.5460 C.3   502  LEU502      0.0019
     32  CD1        1.4730   27.0940   -4.5280 C.3   502  LEU502      0.0001
     33  CD2        3.1840   28.7070   -3.7830 C.3   502  LEU502      0.0001
     34  N          4.4620   24.1730   -5.1620 N.3   507  ARG507     -0.1231
     35  CA         4.5810   24.8280   -6.4660 C.3   507  ARG507      0.1694
     36  C          4.7030   23.8020   -7.5640 C.2   507  ARG507      0.2591
     37  O          3.8740   23.7460   -8.4740 O.2   507  ARG507     -0.2718
     38  CB         5.7960   25.7450   -6.4950 C.3   507  ARG507      0.0321
     39  CG         5.6950   26.7900   -5.4330 C.3   507  ARG507      0.0489
     40  CD         6.7940   27.8110   -5.4560 C.3   507  ARG507      0.2205
     41  NE         6.5250   28.7600   -4.3860 N.pl3 507  ARG507     -0.0865
     42  CZ         7.3560   29.7230   -4.0270 C.cat 507  ARG507      0.5346
     43  NH1        8.5040   29.8440   -4.6690 N.pl3 507  ARG507      0.1354
     44  NH2        7.0430   30.5470   -3.0290 N.pl3 507  ARG507      0.1354
     45  N          5.7560   23.0010   -7.4780 N.am  508  GLN508     -0.1979
     46  CA         5.9890   21.9340   -8.4420 C.3   508  GLN508      0.1601
     47  C          4.6740   21.2000   -8.6970 C.2   508  GLN508      0.2287
     48  O          4.2980   20.9580   -9.8450 O.2   508  GLN508     -0.2864
     49  CB         7.0280   20.9430   -7.8980 C.3   508  GLN508      0.0394
     50  CG         8.4810   21.4330   -7.9720 C.3   508  GLN508      0.0908
     51  CD         9.4570   20.5310   -7.2110 C.2   508  GLN508      0.2608
     52  OE1        9.3950   19.2980   -7.3040 O.2   508  GLN508     -0.2717
     53  NE2       10.3680   21.1500   -6.4610 N.am  508  GLN508     -0.0878
     54  N          1.8280   22.2800   -8.5720 N.3   510  LYS510     -0.1231
     55  CA         0.8950   23.1140   -9.3270 C.3   510  LYS510      0.1693
     56  C          1.4390   23.1710  -10.7360 C.2   510  LYS510      0.2591
     57  O          0.6920   23.0540  -11.7100 O.2   510  LYS510     -0.2718
     58  CB         0.7610   24.4990   -8.6870 C.3   510  LYS510      0.0285
     59  CG        -0.0570   24.5160   -7.4080 C.3   510  LYS510      0.0035
     60  CD        -1.4850   24.0900   -7.6870 C.3   510  LYS510      0.0206
     61  CE        -2.3490   24.1790   -6.4490 C.3   510  LYS510      0.1093
     62  NZ        -1.9460   23.1650   -5.4450 N.3   510  LYS510     -0.1314
     63  N          2.7500   23.3210  -10.8420 N.am  511  LYS511     -0.1980
     64  CA         3.3660   23.3290  -12.1550 C.3   511  LYS511      0.1596
     65  C          3.0960   21.9500  -12.7960 C.2   511  LYS511      0.2287
     66  O          3.0730   21.8110  -14.0250 O.2   511  LYS511     -0.2864
     67  CB         4.8480   23.6900  -12.0490 C.3   511  LYS511      0.0298
     68  CG         5.1280   25.1980  -12.0120 C.3   511  LYS511      0.0038
     69  CD         4.3440   25.8750  -10.8810 C.3   511  LYS511      0.0206
     70  CE         4.7600   27.3200  -10.6430 C.3   511  LYS511      0.1093
     71  NZ         4.0680   27.8670   -9.4340 N.3   511  LYS511     -0.1314
     72  N          3.9120   29.7080  -19.0050 N.3   537  PHE537     -0.1227
     73  CA         3.0840   29.6850  -17.7820 C.3   537  PHE537      0.1736
     74  C          3.9050   30.0170  -16.5330 C.2   537  PHE537      0.2595
     75  O          3.4220   30.6650  -15.6040 O.2   537  PHE537     -0.2718
     76  CB         2.4240   28.3070  -17.5770 C.3   537  PHE537      0.0547
     77  CG         1.7560   28.1340  -16.2160 C.ar  537  PHE537     -0.0202
     78  CD1        0.5580   28.7910  -15.9250 C.ar  537  PHE537     -0.0042
     79  CD2        2.3050   27.3070  -15.2330 C.ar  537  PHE537     -0.0042
     80  CE1       -0.0900   28.6370  -14.6780 C.ar  537  PHE537     -0.0003
     81  CE2        1.6550   27.1470  -13.9740 C.ar  537  PHE537     -0.0003
     82  CZ         0.4700   27.8020  -13.6970 C.ar  537  PHE537     -0.0000
     83  N          5.1490   29.5610  -16.5120 N.am  538  ALA538     -0.1980
     84  CA         6.0230   29.8150  -15.3820 C.3   538  ALA538      0.1597
     85  C          6.3220   31.3140  -15.2470 C.2   538  ALA538      0.2287
     86  O          6.4700   31.8320  -14.1410 O.2   538  ALA538     -0.2864
     87  CB         7.3070   29.0300  -15.5590 C.3   538  ALA538      0.0319
     88  N          3.2400   33.4300  -13.7270 N.3   541  VAL541     -0.1231
     89  CA         3.2590   33.4020  -12.2750 C.3   541  VAL541      0.1692
     90  C          4.3450   34.3320  -11.7660 C.2   541  VAL541      0.2591
     91  O          4.0660   35.3060  -11.0580 O.2   541  VAL541     -0.2718
     92  CB         3.5300   31.9970  -11.7590 C.3   541  VAL541      0.0266
     93  CG1        3.5320   31.9980  -10.2430 C.3   541  VAL541      0.0020
     94  CG2        2.4800   31.0550  -12.2970 C.3   541  VAL541      0.0020
     95  N          5.5850   34.0240  -12.1340 N.am  542  GLU542     -0.1979
     96  CA         6.7270   34.8300  -11.7300 C.3   542  GLU542      0.1602
     97  C          6.3810   36.3090  -11.8850 C.2   542  GLU542      0.2287
     98  O          6.7290   37.1290  -11.0400 O.2   542  GLU542     -0.2864
     99  CB         7.9560   34.4700  -12.5840 C.3   542  GLU542      0.0415
    100  CG         9.2250   35.2270  -12.1930 C.3   542  GLU542      0.1163
    101  CD        10.4250   34.9130  -13.0790 C.2   542  GLU542      0.3649
    102  OE1       10.8450   33.7380  -13.1360 O.co2 542  GLU542     -0.2457
    103  OE2       10.9520   35.8480  -13.7200 O.co2 542  GLU542     -0.2457
    104  N          2.6440   37.4720   -9.8110 N.3   545  CYS545     -0.1221
    105  CA         2.9040   37.2410   -8.3860 C.3   545  CYS545      0.1808
    106  C          3.8190   38.2460   -7.6670 C.2   545  CYS545      0.2601
    107  O          3.7430   38.3550   -6.4370 O.2   545  CYS545     -0.2717
    108  CB         3.4740   35.8340   -8.2030 C.3   545  CYS545      0.0970
    109  SG         2.2220   34.5490   -7.8740 S.3   545  CYS545     -0.0800
    110  N          4.7030   38.9430   -8.3880 N.am  546  LYS546     -0.1979
    111  CA         5.6340   39.9000   -7.7620 C.3   546  LYS546      0.1596
    112  C          5.6230   41.1620   -8.5640 C.2   546  LYS546      0.2287
    113  O          6.5330   41.9990   -8.4990 O.2   546  LYS546     -0.2864
    114  CB         7.0240   39.2790   -7.6190 C.3   546  LYS546      0.0298
    115  CG         6.9250   38.1760   -6.5310 C.3   546  LYS546      0.0038
    116  CD         8.3520   37.7130   -6.2540 C.3   546  LYS546      0.0206
    117  CE         8.3360   36.1820   -6.2320 C.3   546  LYS546      0.1093
    118  NZ         7.6480   35.7580   -7.5080 N.3   546  LYS546     -0.1314
@<TRIPOS>BOND
     1    72    73    1
     2    73    76    1
     3    73    74    1
     4    76    77    1
     5    74    83   am
     6    74    75    2
     7    83    84    1
     8    77    78   ar
     9    77    79   ar
    10    78    80   ar
    11    87    84    1
    12    84    85    1
    13    85    86    2
    14    79    81   ar
    15    80    82   ar
    16    66    65    2
    17    81    82   ar
    18    88    89    1
    19   103   101   ar
    20   102   101   ar
    21   101   100    1
    22    65    64    1
    23    99   100    1
    24    99    96    1
    25    94    92    1
    26    89    90    1
    27    89    92    1
    28     8    10   ar
    29     8     6   ar
    30     5     6    1
    31     5     2    1
    32    10    11   ar
    33     6     7   ar
    34    64    67    1
    35    64    63    1
    36    95    90   am
    37    95    96    1
    38    11     9   ar
    39     7     9   ar
    40    67    68    1
    41    68    69    1
    42    97    96    1
    43    97    98    2
    44    90    91    2
    45    92    93    1
    46    57    56    2
    47     1     2    1
    48     2     3    1
    49    69    70    1
    50    63    56   am
    51    56    55    1
    52    70    71    1
    53    48    47    2
    54   104   105    1
    55     3     4    2
    56    55    58    1
    57    55    54    1
    58    19    17    1
    59    47    46    1
    60    58    59    1
    61   112   113    2
    62   112   111    1
    63    37    36    2
    64    46    49    1
    65    46    45    1
    66   110   111    1
    67   110   106   am
    68   105   108    1
    69   105   106    1
    70   108   109    1
    71    50    49    1
    72    50    51    1
    73   109    25    1
    74   111   114    1
    75    60    59    1
    76    60    61    1
    77   106   107    2
    78   114   115    1
    79    36    45   am
    80    36    35    1
    81   118   117    1
    82    17    16    1
    83    52    51    2
    84    51    53   am
    85    18    16    1
    86    16    13    1
    87   115   116    1
    88    38    35    1
    89    38    39    1
    90    35    34    1
    91    61    62    1
    92   116   117    1
    93    25    24    1
    94    15    14    2
    95    40    39    1
    96    40    41    1
    97    13    14    1
    98    13    12    1
    99    14    20   am
   100    43    42    1
   101    32    31    1
   102    24    21    1
   103    41    42    2
   104    20    21    1
   105    21    22    1
   106    42    44    1
   107    33    31    1
   108    31    30    1
   109    22    23    2
   110    30    27    1
   111    29    28    2
   112    26    27    1
   113    28    27    1
