@<TRIPOS>MOLECULE
tmp/2vufA00.pdb
 195 188 0 0 0
SMALL
GASTEIGER

@<TRIPOS>ATOM
      1  N         -4.6510   17.9740    6.8570 N.3   101  LEU101     -0.1231
      2  CA        -4.2960   17.9590    8.2690 C.3   101  LEU101      0.1693
      3  C         -2.9900   18.7120    8.4950 C.2   101  LEU101      0.2592
      4  O         -1.9140   18.1530    8.3150 O.2   101  LEU101     -0.2718
      5  CB        -4.1680   16.5120    8.7710 C.3   101  LEU101      0.0284
      6  CG        -4.9040   16.1010   10.0570 C.3   101  LEU101      0.0019
      7  CD1       -4.4600   14.6960   10.4240 C.3   101  LEU101      0.0001
      8  CD2       -4.6130   17.0560   11.2160 C.3   101  LEU101      0.0001
      9  N         -3.0870   19.9820    8.8840 N.am  102  VAL102     -0.1966
     10  CA        -1.9010   20.8090    9.1390 C.3   102  VAL102      0.1727
     11  C         -1.4270   20.6780   10.5910 C.2   102  VAL102      0.2616
     12  O         -2.2230   20.3790   11.4830 O.2   102  VAL102     -0.2715
     13  CB        -2.1870   22.2980    8.8430 C.3   102  VAL102      0.0290
     14  CG1       -3.3670   22.7820    9.6880 C.3   102  VAL102      0.0023
     15  CG2       -0.9350   23.1340    9.1170 C.3   102  VAL102      0.0023
     16  N         -0.1430   20.9260   10.8380 N.am  103  ARG103     -0.1964
     17  CA         0.3760   20.7850   12.1930 C.3   103  ARG103      0.1714
     18  C          0.6960   22.0850   12.9170 C.2   103  ARG103      0.2458
     19  O          1.4500   22.9240   12.4170 O.2   103  ARG103     -0.2730
     20  CB         1.6250   19.9020   12.1820 C.3   103  ARG103      0.0347
     21  CG         2.9200   20.6630   12.1530 C.3   103  ARG103      0.0492
     22  CD         3.8800   20.0680   11.1700 C.3   103  ARG103      0.2205
     23  NE         5.0120   20.9600   10.9660 N.pl3 103  ARG103     -0.0865
     24  CZ         5.9040   20.8260    9.9930 C.cat 103  ARG103      0.5346
     25  NH1        5.8030   19.8310    9.1230 N.pl3 103  ARG103      0.1354
     26  NH2        6.8960   21.6970    9.8870 N.pl3 103  ARG103      0.1354
     27  N          0.1260   22.2640   14.1210 N.am  104  PRO104     -0.2727
     28  CA         0.3470   23.4620   14.9380 C.3   104  PRO104      0.1402
     29  C          1.8350   23.5680   15.2440 C.2   104  PRO104      0.2269
     30  O          2.5690   22.5990   15.0790 O.2   104  PRO104     -0.2865
     31  CB        -0.4740   23.1770   16.1900 C.3   104  PRO104      0.0296
     32  CG        -1.5880   22.3170   15.6740 C.3   104  PRO104      0.0237
     33  CD        -0.8600   21.3730   14.7560 C.3   104  PRO104      0.0939
     34  N          2.0680   21.3130   20.2200 N.3   109  MET109     -0.1245
     35  CA         2.0830   19.8620   20.2090 C.3   109  MET109      0.1570
     36  C          2.6480   19.3400   21.5210 C.2   109  MET109      0.2261
     37  O          2.0390   18.5060   22.1870 O.2   109  MET109     -0.2867
     38  CB         2.9180   19.3220   19.0600 C.3   109  MET109      0.0387
     39  CG         2.6100   19.9010   17.6890 C.3   109  MET109      0.0595
     40  SD         3.7300   19.2760   16.4210 S.3   109  MET109     -0.1393
     41  CE         2.6090   18.2680   15.4480 C.3   109  MET109      0.0692
     42  N          0.2790   20.0670   24.4900 N.3   112  ALA112     -0.1245
     43  CA        -0.8780   19.1990   24.3340 C.3   112  ALA112      0.1562
     44  C         -0.5050   17.7470   24.6380 C.2   112  ALA112      0.2260
     45  O         -1.3090   16.9880   25.1810 O.2   112  ALA112     -0.2867
     46  CB        -1.4160   19.3170   22.9120 C.3   112  ALA112      0.0290
     47  N         -3.8240   12.7140   23.2600 N.3   120  PHE120     -0.1241
     48  CA        -2.9220   13.0320   22.1650 C.3   120  PHE120      0.1605
     49  C         -2.7560   11.8450   21.2500 C.2   120  PHE120      0.2264
     50  O         -3.0020   11.9160   20.0530 O.2   120  PHE120     -0.2867
     51  CB        -1.5580   13.4110   22.6980 C.3   120  PHE120      0.0534
     52  CG        -0.6530   14.2190   21.8160 C.ar  120  PHE120     -0.0203
     53  CD1       -0.9730   15.5270   21.4690 C.ar  120  PHE120     -0.0042
     54  CD2        0.5340   13.6970   21.3610 C.ar  120  PHE120     -0.0042
     55  CE1       -0.1170   16.3060   20.6970 C.ar  120  PHE120     -0.0003
     56  CE2        1.4270   14.4690   20.6200 C.ar  120  PHE120     -0.0003
     57  CZ         1.1020   15.7760   20.2910 C.ar  120  PHE120     -0.0000
     58  N         -5.7900   10.6000   19.3840 N.3   123  LYS123     -0.1231
     59  CA        -6.1160   11.5010   18.2800 C.3   123  LYS123      0.1693
     60  C         -5.3320   11.0250   17.0700 C.2   123  LYS123      0.2592
     61  O         -5.8660   10.9340   15.9580 O.2   123  LYS123     -0.2718
     62  CB        -5.7300   12.9440   18.6210 C.3   123  LYS123      0.0285
     63  CG        -5.9870   13.9370   17.5280 C.3   123  LYS123      0.0035
     64  CD        -7.4380   14.2490   17.4870 C.3   123  LYS123      0.0206
     65  CE        -7.7130   15.6620   17.0140 C.3   123  LYS123      0.1093
     66  NZ        -9.1710   16.0010   17.2250 N.3   123  LYS123     -0.1314
     67  N         -4.0600   10.7150   17.3130 N.am  124  TYR124     -0.1976
     68  CA        -3.1630   10.2190   16.2850 C.3   124  TYR124      0.1639
     69  C         -3.7990    9.0320   15.5980 C.2   124  TYR124      0.2290
     70  O         -4.0800    9.0880   14.4100 O.2   124  TYR124     -0.2864
     71  CB        -1.8360    9.7810   16.8920 C.3   124  TYR124      0.0560
     72  CG        -0.8830    9.1740   15.8930 C.ar  124  TYR124     -0.0198
     73  CD1       -0.2850    9.9530   14.9100 C.ar  124  TYR124     -0.0009
     74  CD2       -0.5740    7.8180   15.9290 C.ar  124  TYR124     -0.0009
     75  CE1        0.6020    9.4010   13.9850 C.ar  124  TYR124      0.0417
     76  CE2        0.3140    7.2540   15.0060 C.ar  124  TYR124      0.0417
     77  CZ         0.8950    8.0540   14.0430 C.ar  124  TYR124      0.1957
     78  OH         1.7770    7.5090   13.1460 O.3   124  TYR124     -0.2866
     79  N         -6.9470    9.8720   13.4090 N.3   127  GLU127     -0.1231
     80  CA        -6.6690   10.5210   12.1380 C.3   127  GLU127      0.1699
     81  C         -6.1060    9.5600   11.1160 C.2   127  GLU127      0.2592
     82  O         -6.7180    9.3380   10.0760 O.2   127  GLU127     -0.2718
     83  CB        -5.6820   11.6710   12.3230 C.3   127  GLU127      0.0402
     84  CG        -6.2070   12.8290   13.1690 C.3   127  GLU127      0.1161
     85  CD        -7.5470   13.3780   12.6700 C.2   127  GLU127      0.3649
     86  OE1       -8.1010   12.8300   11.6840 O.co2 127  GLU127     -0.2457
     87  OE2       -8.0480   14.3610   13.2700 O.co2 127  GLU127     -0.2457
     88  N         -4.9430    8.9800   11.3870 N.am  128  ILE128     -0.1980
     89  CA        -4.3870    8.0500   10.4020 C.3   128  ILE128      0.1595
     90  C         -5.4130    6.9690   10.0180 C.2   128  ILE128      0.2287
     91  O         -5.6900    6.7520    8.8420 O.2   128  ILE128     -0.2864
     92  CB        -3.0940    7.3340   10.8960 C.3   128  ILE128      0.0276
     93  CG1       -2.0730    8.3420   11.4420 C.3   128  ILE128      0.0022
     94  CG2       -2.4610    6.5670    9.7490 C.3   128  ILE128      0.0022
     95  CD1       -1.7640    9.4840   10.5080 C.3   128  ILE128      0.0001
     96  N         -6.8170    6.2200    6.2930 N.3   132  HIS132     -0.1241
     97  CA        -6.2960    5.0240    5.6490 C.3   132  HIS132      0.1621
     98  C         -7.0350    3.8040    6.1530 C.2   132  HIS132      0.2264
     99  O         -6.4820    2.9630    6.8600 O.2   132  HIS132     -0.2867
    100  CB        -4.8190    4.8860    5.9240 C.3   132  HIS132      0.0745
    101  CG        -4.0230    6.0520    5.4530 C.ar  132  HIS132      0.0817
    102  ND1       -3.0300    5.9390    4.5040 N.ar  132  HIS132     -0.2268
    103  CD2       -4.0380    7.3470    5.8370 C.ar  132  HIS132      0.1154
    104  CE1       -2.4610    7.1170    4.3300 C.ar  132  HIS132      0.1986
    105  NE2       -3.0540    7.9880    5.1270 N.ar  132  HIS132     -0.2212
    106  N         -5.1350    0.5670    6.5660 N.3   135  PHE135     -0.1241
    107  CA        -3.8950    0.5140    7.3240 C.3   135  PHE135      0.1605
    108  C         -3.8910   -0.7090    8.2500 C.2   135  PHE135      0.2264
    109  O         -4.7770   -0.8630    9.1040 O.2   135  PHE135     -0.2867
    110  CB        -3.7560    1.7820    8.1620 C.3   135  PHE135      0.0534
    111  CG        -2.3450    2.1610    8.4520 C.ar  135  PHE135     -0.0203
    112  CD1       -1.5030    1.3010    9.1310 C.ar  135  PHE135     -0.0042
    113  CD2       -1.8520    3.3850    8.0340 C.ar  135  PHE135     -0.0042
    114  CE1       -0.1830    1.6640    9.3870 C.ar  135  PHE135     -0.0003
    115  CE2       -0.5470    3.7530    8.2820 C.ar  135  PHE135     -0.0003
    116  CZ         0.2900    2.8940    8.9590 C.ar  135  PHE135     -0.0000
    117  N         -0.1140   -0.2540   12.9180 N.3   140  LEU140     -0.1245
    118  CA        -0.3830    1.1280   13.3040 C.3   140  LEU140      0.1561
    119  C          0.0410    1.3690   14.7480 C.2   140  LEU140      0.2260
    120  O          0.5030    2.4640   15.0840 O.2   140  LEU140     -0.2867
    121  CB        -1.8680    1.4750   13.1320 C.3   140  LEU140      0.0270
    122  CG        -2.1970    2.9650   13.3260 C.3   140  LEU140      0.0019
    123  CD1       -1.2270    3.8000   12.5130 C.3   140  LEU140      0.0001
    124  CD2       -3.6290    3.2610   12.9120 C.3   140  LEU140      0.0001
    125  N          3.6860    2.1460   14.8860 N.3   143  PHE143     -0.1241
    126  CA         3.9250    3.5500   14.5360 C.3   143  PHE143      0.1605
    127  C          3.5090    4.5110   15.6580 C.2   143  PHE143      0.2264
    128  O          4.0630    5.6050   15.7850 O.2   143  PHE143     -0.2867
    129  CB         3.1640    3.9420   13.2690 C.3   143  PHE143      0.0534
    130  CG         3.7220    3.3560   12.0080 C.ar  143  PHE143     -0.0203
    131  CD1        3.1480    2.2170   11.4410 C.ar  143  PHE143     -0.0042
    132  CD2        4.7860    3.9660   11.3540 C.ar  143  PHE143     -0.0042
    133  CE1        3.6220    1.6940   10.2310 C.ar  143  PHE143     -0.0003
    134  CE2        5.2690    3.4520   10.1460 C.ar  143  PHE143     -0.0003
    135  CZ         4.6830    2.3150    9.5850 C.ar  143  PHE143     -0.0000
    136  N          5.7340    7.0990   17.5550 N.3   147  TYR147     -0.1241
    137  CA         5.2420    8.4840   17.5330 C.3   147  TYR147      0.1605
    138  C          5.3740    9.1120   18.9160 C.2   147  TYR147      0.2264
    139  O          5.8400   10.2460   19.0640 O.2   147  TYR147     -0.2867
    140  CB         3.7750    8.4750   17.0920 C.3   147  TYR147      0.0534
    141  CG         3.1280    9.8270   16.9300 C.ar  147  TYR147     -0.0201
    142  CD1        3.5500   10.7150   15.9480 C.ar  147  TYR147     -0.0009
    143  CD2        2.0510   10.2020   17.7320 C.ar  147  TYR147     -0.0009
    144  CE1        2.9100   11.9450   15.7640 C.ar  147  TYR147      0.0417
    145  CE2        1.4060   11.4260   17.5560 C.ar  147  TYR147      0.0417
    146  CZ         1.8380   12.2890   16.5710 C.ar  147  TYR147      0.1957
    147  OH         1.1860   13.4820   16.3880 O.3   147  TYR147     -0.2866
    148  N          9.5020   13.3240   12.3800 N.3   168  LEU168     -0.1231
    149  CA         8.1240   13.3700   11.9900 C.3   168  LEU168      0.1693
    150  C          7.9790   13.0820   10.5020 C.2   168  LEU168      0.2592
    151  O          7.0590   12.3650   10.0990 O.2   168  LEU168     -0.2718
    152  CB         7.5430   14.7280   12.3410 C.3   168  LEU168      0.0284
    153  CG         6.0390   14.7150   12.6010 C.3   168  LEU168      0.0019
    154  CD1        5.7050   13.6970   13.6880 C.3   168  LEU168      0.0001
    155  CD2        5.5990   16.1050   13.0170 C.3   168  LEU168      0.0001
    156  N          8.8830   13.6360    9.6910 N.am  169  ASP169     -0.1974
    157  CA         8.8620   13.4230    8.2340 C.3   169  ASP169      0.1709
    158  C          9.1570   11.9650    7.9130 C.2   169  ASP169      0.2293
    159  O          8.5860   11.3790    6.9950 O.2   169  ASP169     -0.2864
    160  CB         9.8450   14.3670    7.5410 C.3   169  ASP169      0.1436
    161  CG         9.3580   15.8020    7.5190 C.2   169  ASP169      0.3671
    162  OD1        8.4410   16.1290    8.2990 O.co2 169  ASP169     -0.2456
    163  OD2        9.8940   16.5990    6.7220 O.co2 169  ASP169     -0.2456
    164  N          8.3950    9.4890    9.6540 N.3   171  LEU171     -0.1231
    165  CA         7.2400    8.6600    9.9560 C.3   171  LEU171      0.1693
    166  C          6.1340    8.8270    8.9150 C.2   171  LEU171      0.2591
    167  O          5.3870    7.8850    8.6450 O.2   171  LEU171     -0.2718
    168  CB         6.6880    8.9920   11.3440 C.3   171  LEU171      0.0284
    169  CG         7.3800    8.3610   12.5530 C.3   171  LEU171      0.0019
    170  CD1        6.7800    8.8990   13.8300 C.3   171  LEU171      0.0001
    171  CD2        7.2110    6.8570   12.5000 C.3   171  LEU171      0.0001
    172  N          6.0190   10.0170    8.3250 N.am  172  ARG172     -0.1980
    173  CA         4.9680   10.2320    7.3350 C.3   172  ARG172      0.1597
    174  C          5.2650    9.3850    6.1290 C.2   172  ARG172      0.2287
    175  O          4.3750    8.7400    5.5820 O.2   172  ARG172     -0.2864
    176  CB         4.8320   11.7210    7.0140 C.3   172  ARG172      0.0334
    177  CG         4.1960   12.0080    5.6640 C.3   172  ARG172      0.0492
    178  CD         4.9510   13.0960    4.9210 C.3   172  ARG172      0.2205
    179  NE         5.3730   14.1750    5.8100 N.pl3 172  ARG172     -0.0865
    180  CZ         6.4400   14.9380    5.6050 C.cat 172  ARG172      0.5346
    181  NH1        7.1990   14.7420    4.5350 N.pl3 172  ARG172      0.1354
    182  NH2        6.7470   15.8950    6.4680 N.pl3 172  ARG172      0.1354
    183  N          5.1220    5.5810    6.9740 N.3   175  GLY175     -0.1210
    184  CA         3.7490    5.2280    7.2760 C.3   175  GLY175      0.1956
    185  C          2.9630    5.2010    5.9830 C.2   175  GLY175      0.2611
    186  O          2.0760    4.3680    5.8060 O.2   175  GLY175     -0.2717
    187  N          3.2820    6.1200    5.0730 N.am  176  LYS176     -0.1979
    188  CA         2.6030    6.1650    3.7800 C.3   176  LYS176      0.1596
    189  C          2.9330    4.9030    2.9670 C.2   176  LYS176      0.2287
    190  O          2.0630    4.3220    2.3110 O.2   176  LYS176     -0.2864
    191  CB         3.0070    7.4210    2.9920 C.3   176  LYS176      0.0298
    192  CG         1.8010    8.2060    2.4850 C.3   176  LYS176      0.0038
    193  CD         1.0020    7.5310    1.3850 C.3   176  LYS176      0.0206
    194  CE        -0.2160    6.7260    1.8050 C.3   176  LYS176      0.1093
    195  NZ        -0.5800    5.6960    0.7740 N.3   176  LYS176     -0.1314
@<TRIPOS>BOND
     1   195   194    1
     2   193   194    1
     3   193   192    1
     4   190   189    2
     5   192   191    1
     6   189   188    1
     7   191   188    1
     8   188   187    1
     9   104   102   ar
    10   104   105   ar
    11   102   101   ar
    12   181   180    1
    13   178   177    1
    14   178   179    1
    15   187   185   am
    16   105   103   ar
    17   101   103   ar
    18   101   100    1
    19   175   174    2
    20   180   179    2
    21   180   182    1
    22    97   100    1
    23    97    98    1
    24    97    96    1
    25   177   176    1
    26   186   185    2
    27   185   184    1
    28   174   173    1
    29    98    99    2
    30   106   107    1
    31   163   161   ar
    32     1     2    1
    33   183   184    1
    34   159   158    2
    35   176   173    1
    36   107   110    1
    37   107   108    1
    38   173   172    1
    39   161   160    1
    40   161   162   ar
    41   160   157    1
    42   158   157    1
    43   113   115   ar
    44   113   111   ar
    45   110   111    1
    46   157   156    1
    47   108   109    2
    48     2     3    1
    49     2     5    1
    50   115   116   ar
    51     4     3    2
    52   172   166   am
    53   111   112   ar
    54     3     9   am
    55   167   166    2
    56     5     6    1
    57    91    90    2
    58    13    15    1
    59    13    10    1
    60    13    14    1
    61     9    10    1
    62   166   165    1
    63   116   114   ar
    64    25    24    1
    65   112   114   ar
    66    10    11    1
    67   135   134   ar
    68   135   133   ar
    69   164   165    1
    70   156   150   am
    71    94    92    1
    72    26    24    1
    73   165   168    1
    74    24    23    2
    75    90    89    1
    76     6     7    1
    77     6     8    1
    78    82    81    2
    79   151   150    2
    80   134   132   ar
    81   133   131   ar
    82    89    92    1
    83    89    88    1
    84   150   149    1
    85    95    93    1
    86    11    16   am
    87    11    12    2
    88    16    17    1
    89    92    93    1
    90    23    22    1
    91    81    88   am
    92    81    80    1
    93    22    21    1
    94   168   169    1
    95   132   130   ar
    96   131   130   ar
    97    86    85   ar
    98   149   152    1
    99   149   148    1
   100   130   129    1
   101    80    83    1
   102    80    79    1
   103    21    20    1
   104    20    17    1
   105    17    18    1
   106    83    84    1
   107   152   153    1
   108    19    18    2
   109   171   169    1
   110   123   122    1
   111   169   170    1
   112   153   155    1
   113   153   154    1
   114    85    84    1
   115    85    87   ar
   116   124   122    1
   117    18    27   am
   118   117   118    1
   119   121   118    1
   120   121   122    1
   121    78    77    1
   122   129   126    1
   123   118   119    1
   124    75    77   ar
   125    75    73   ar
   126    77    76   ar
   127    27    33    1
   128    27    28    1
   129    70    69    2
   130   126   125    1
   131   126   127    1
   132   119   120    2
   133    33    32    1
   134    73    72   ar
   135    28    29    1
   136    28    31    1
   137    76    74   ar
   138    30    29    2
   139    41    40    1
   140    69    68    1
   141   127   128    2
   142    32    31    1
   143   144   142   ar
   144   144   146   ar
   145    72    74   ar
   146    72    71    1
   147   142   141   ar
   148    61    60    2
   149    68    71    1
   150    68    67    1
   151   147   146    1
   152    40    39    1
   153   146   145   ar
   154   141   140    1
   155   141   143   ar
   156    65    66    1
   157    65    64    1
   158    60    67   am
   159    60    59    1
   160   140   137    1
   161    64    63    1
   162    63    62    1
   163   137   136    1
   164   137   138    1
   165   145   143   ar
   166    39    38    1
   167    59    62    1
   168    59    58    1
   169   138   139    2
   170    38    35    1
   171    50    49    2
   172    35    34    1
   173    35    36    1
   174    57    56   ar
   175    57    55   ar
   176    56    54   ar
   177    55    53   ar
   178    49    48    1
   179    54    52   ar
   180    53    52   ar
   181    36    37    2
   182    52    51    1
   183    48    51    1
   184    48    47    1
   185    46    43    1
   186    43    42    1
   187    43    44    1
   188    44    45    2
