@<TRIPOS>MOLECULE
tmp/2vugB03.pdb
 107 102 0 0 0
SMALL
GASTEIGER

@<TRIPOS>ATOM
      1  N         21.2650   14.8980   54.3160 N.3   146  TYR146     -0.1227
      2  CA        21.7220   16.1970   54.7360 C.3   146  TYR146      0.1736
      3  C         22.1000   17.0360   53.5340 C.2   146  TYR146      0.2595
      4  O         21.2320   17.6510   52.9060 O.2   146  TYR146     -0.2718
      5  CB        22.8220   16.0830   55.7930 C.3   146  TYR146      0.0548
      6  CG        22.3790   15.2790   57.0040 C.ar  146  TYR146     -0.0200
      7  CD1       21.6330   15.8630   58.0250 C.ar  146  TYR146     -0.0009
      8  CD2       22.6940   13.9230   57.1150 C.ar  146  TYR146     -0.0009
      9  CE1       21.2160   15.1170   59.1340 C.ar  146  TYR146      0.0417
     10  CE2       22.2840   13.1660   58.2130 C.ar  146  TYR146      0.0417
     11  CZ        21.5450   13.7640   59.2210 C.ar  146  TYR146      0.1957
     12  OH        21.1530   13.0070   60.3130 O.3   146  TYR146     -0.2866
     13  N         23.3740   17.0560   53.1870 N.am  147  LEU147     -0.1966
     14  CA        23.8260   17.8620   52.0560 C.3   147  LEU147      0.1728
     15  C         22.9770   17.6730   50.7780 C.2   147  LEU147      0.2616
     16  O         22.4600   16.5890   50.5170 O.2   147  LEU147     -0.2715
     17  CB        25.3150   17.6010   51.8050 C.3   147  LEU147      0.0311
     18  CG        26.1000   18.4730   50.8380 C.3   147  LEU147      0.0022
     19  CD1       25.8030   19.9650   51.0210 C.3   147  LEU147      0.0001
     20  CD2       27.5610   18.2020   51.0630 C.3   147  LEU147      0.0001
     21  N         22.8330   18.7510   50.0100 N.am  148  VAL148     -0.1977
     22  CA        22.0290   18.7790   48.7760 C.3   148  VAL148      0.1596
     23  C         22.7120   18.0290   47.6330 C.2   148  VAL148      0.2287
     24  O         22.0480   17.2990   46.8870 O.2   148  VAL148     -0.2864
     25  CB        21.7340   20.2520   48.2870 C.3   148  VAL148      0.0276
     26  CG1       20.7150   20.2790   47.1360 C.3   148  VAL148      0.0022
     27  CG2       21.2640   21.1470   49.4370 C.3   148  VAL148      0.0022
     28  N         24.0510   27.5620   45.9480 N.3   245  ILE245     -0.1231
     29  CA        23.1590   26.7660   46.8050 C.3   245  ILE245      0.1692
     30  C         22.4910   27.6270   47.8720 C.2   245  ILE245      0.2592
     31  O         21.2790   27.5220   48.1060 O.2   245  ILE245     -0.2718
     32  CB        23.9220   25.6020   47.4870 C.3   245  ILE245      0.0266
     33  CG1       24.1480   24.4630   46.4970 C.3   245  ILE245      0.0019
     34  CG2       23.1960   25.0870   48.7440 C.3   245  ILE245      0.0020
     35  CD1       25.2700   23.5210   46.9290 C.3   245  ILE245      0.0001
     36  N         23.2850   28.4840   48.5010 N.am  246  GLY246     -0.1957
     37  CA        22.8410   29.2200   49.6740 C.3   246  GLY246      0.1869
     38  C         22.0650   30.4730   49.3590 C.2   246  GLY246      0.2309
     39  O         21.3000   30.9530   50.1960 O.2   246  GLY246     -0.2863
     40  N         18.3420   30.3170   49.6050 N.3   249  VAL249     -0.1245
     41  CA        17.8330   30.4340   50.9690 C.3   249  VAL249      0.1561
     42  C         18.5630   31.5350   51.6890 C.2   249  VAL249      0.2260
     43  O         18.7370   31.4850   52.8910 O.2   249  VAL249     -0.2867
     44  CB        18.0150   29.1290   51.7550 C.3   249  VAL249      0.0252
     45  CG1       16.9750   28.1150   51.3420 C.3   249  VAL249      0.0019
     46  CG2       19.4260   28.5550   51.5420 C.3   249  VAL249      0.0019
     47  N         18.2130   32.3420   55.2790 N.3   252  GLU252     -0.1231
     48  CA        18.4130   31.2350   56.2160 C.3   252  GLU252      0.1699
     49  C         19.8430   31.1800   56.7190 C.2   252  GLU252      0.2592
     50  O         20.1460   30.4070   57.6030 O.2   252  GLU252     -0.2718
     51  CB        18.0740   29.8740   55.5780 C.3   252  GLU252      0.0402
     52  CG        16.5780   29.6070   55.2410 C.3   252  GLU252      0.1161
     53  CD        15.6850   29.4170   56.4640 C.2   252  GLU252      0.3649
     54  OE1       16.2180   29.1570   57.5640 O.co2 252  GLU252     -0.2457
     55  OE2       14.4470   29.5310   56.3200 O.co2 252  GLU252     -0.2457
     56  N         20.7270   31.9920   56.1570 N.am  253  LEU253     -0.1980
     57  CA        22.1590   31.8690   56.4300 C.3   253  LEU253      0.1596
     58  C         22.7680   33.1440   57.0010 C.2   253  LEU253      0.2287
     59  O         22.3070   34.2400   56.6790 O.2   253  LEU253     -0.2864
     60  CB        22.8910   31.5090   55.1390 C.3   253  LEU253      0.0297
     61  CG        22.5850   30.1570   54.5130 C.3   253  LEU253      0.0022
     62  CD1       23.0300   30.1240   53.0580 C.3   253  LEU253      0.0001
     63  CD2       23.2550   29.0580   55.3300 C.3   253  LEU253      0.0001
     64  N         28.5320   33.4860   55.7670 N.3   257  TYR257     -0.1241
     65  CA        28.4800   32.3880   54.8360 C.3   257  TYR257      0.1605
     66  C         28.9140   32.8630   53.4690 C.2   257  TYR257      0.2264
     67  O         29.7340   32.2120   52.8090 O.2   257  TYR257     -0.2867
     68  CB        27.0670   31.8000   54.7550 C.3   257  TYR257      0.0534
     69  CG        26.9690   30.6300   53.8000 C.ar  257  TYR257     -0.0201
     70  CD1       27.2120   29.3190   54.2370 C.ar  257  TYR257     -0.0009
     71  CD2       26.6640   30.8350   52.4500 C.ar  257  TYR257     -0.0009
     72  CE1       27.1420   28.2440   53.3570 C.ar  257  TYR257      0.0417
     73  CE2       26.5880   29.7620   51.5610 C.ar  257  TYR257      0.0417
     74  CZ        26.8300   28.4690   52.0210 C.ar  257  TYR257      0.1957
     75  OH        26.7640   27.4150   51.1270 O.3   257  TYR257     -0.2866
     76  N         12.6790   22.4710   49.3380 N.3   309  GLU309     -0.1245
     77  CA        13.2690   21.5450   48.3810 C.3   309  GLU309      0.1567
     78  C         12.8760   20.1170   48.7120 C.2   309  GLU309      0.2260
     79  O         12.6490   19.7710   49.8950 O.2   309  GLU309     -0.2867
     80  CB        14.7880   21.7010   48.2770 C.3   309  GLU309      0.0388
     81  CG        15.5550   21.5020   49.5650 C.3   309  GLU309      0.1160
     82  CD        17.0210   21.8220   49.3850 C.2   309  GLU309      0.3649
     83  OE1       17.4880   22.8080   50.0030 O.co2 309  GLU309     -0.2457
     84  OE2       17.6960   21.1040   48.6050 O.co2 309  GLU309     -0.2457
     85  N         11.7610   19.6600   52.7620 N.3   353  ARG353     -0.1245
     86  CA        12.2230   20.6560   53.7210 C.3   353  ARG353      0.1563
     87  C         11.6750   22.0300   53.3810 C.2   353  ARG353      0.2260
     88  O         11.6860   22.4570   52.2190 O.2   353  ARG353     -0.2867
     89  CB        13.7470   20.7190   53.8240 C.3   353  ARG353      0.0307
     90  CG        14.1810   21.6190   54.9710 C.3   353  ARG353      0.0489
     91  CD        15.6500   21.8990   54.9710 C.3   353  ARG353      0.2205
     92  NE        16.0140   22.6320   56.1790 N.pl3 353  ARG353     -0.0865
     93  CZ        17.2610   22.9310   56.5330 C.cat 353  ARG353      0.5346
     94  NH1       18.2840   22.5580   55.7650 N.pl3 353  ARG353      0.1354
     95  NH2       17.4870   23.6040   57.6570 N.pl3 353  ARG353      0.1354
     96  N         11.6320   26.2500   54.2390 N.3   355  TYR355     -0.1241
     97  CA        12.4540   27.3390   54.7200 C.3   355  TYR355      0.1605
     98  C         11.5540   28.4950   55.1120 C.2   355  TYR355      0.2264
     99  O         11.2380   29.3630   54.2890 O.2   355  TYR355     -0.2867
    100  CB        13.4740   27.7500   53.6590 C.3   355  TYR355      0.0534
    101  CG        14.4700   26.6650   53.3450 C.ar  355  TYR355     -0.0201
    102  CD1       15.5470   26.4180   54.2070 C.ar  355  TYR355     -0.0009
    103  CD2       14.3400   25.8760   52.2000 C.ar  355  TYR355     -0.0009
    104  CE1       16.4760   25.4220   53.9310 C.ar  355  TYR355      0.0417
    105  CE2       15.2650   24.8720   51.9150 C.ar  355  TYR355      0.0417
    106  CZ        16.3300   24.6550   52.7880 C.ar  355  TYR355      0.1957
    107  OH        17.2590   23.6790   52.5360 O.3   355  TYR355     -0.2866
@<TRIPOS>BOND
     1    28    29    1
     2    33    35    1
     3    33    32    1
     4    29    32    1
     5    29    30    1
     6    24    23    2
     7    26    25    1
     8    32    34    1
     9    23    22    1
    10    30    31    2
    11    30    36   am
    12    80    77    1
    13    80    81    1
    14    25    22    1
    15    25    27    1
    16    77    78    1
    17    77    76    1
    18    36    37    1
    19    84    82   ar
    20    78    79    2
    21    22    21    1
    22    38    37    1
    23    38    39    2
    24    82    81    1
    25    82    83   ar
    26    40    41    1
    27    21    15   am
    28    16    15    2
    29    15    14    1
    30    18    19    1
    31    18    20    1
    32    18    17    1
    33    41    42    1
    34    41    44    1
    35    75    74    1
    36    45    44    1
    37    46    44    1
    38    73    74   ar
    39    73    71   ar
    40    42    43    2
    41    17    14    1
    42   105   103   ar
    43   105   106   ar
    44    74    72   ar
    45    14    13    1
    46   103   101   ar
    47    88    87    2
    48    71    69   ar
    49   107   106    1
    50    85    86    1
    51   106   104   ar
    52    67    66    2
    53     4     3    2
    54    62    61    1
    55    13     3   am
    56   101   100    1
    57   101   102   ar
    58    72    70   ar
    59    87    86    1
    60    66    65    1
    61     3     2    1
    62   100    97    1
    63    86    89    1
    64    69    70   ar
    65    69    68    1
    66    89    90    1
    67   104   102   ar
    68    96    97    1
    69    99    98    2
    70     1     2    1
    71    61    60    1
    72    61    63    1
    73    97    98    1
    74     2     5    1
    75    68    65    1
    76    65    64    1
    77    91    90    1
    78    91    92    1
    79    60    57    1
    80    52    51    1
    81    52    53    1
    82    47    48    1
    83    51    48    1
    84    94    93    1
    85     5     6    1
    86    56    57    1
    87    56    49   am
    88    92    93    2
    89    48    49    1
    90    55    53   ar
    91    57    58    1
    92    53    54   ar
    93    93    95    1
    94    59    58    2
    95    49    50    2
    96     6     8   ar
    97     6     7   ar
    98     8    10   ar
    99     7     9   ar
   100    10    11   ar
   101     9    11   ar
   102    11    12    1
