@<TRIPOS>MOLECULE
tmp/2vugB01.pdb
 169 160 0 0 0
SMALL
GASTEIGER

@<TRIPOS>ATOM
      1  N         34.9420   14.8280   66.3470 N.3    59  PHE59      -0.1228
      2  CA        35.8870   15.1320   65.2870 C.3    59  PHE59       0.1721
      3  C         36.2890   16.5970   65.3880 C.2    59  PHE59       0.2437
      4  O         35.4270   17.4710   65.4260 O.2    59  PHE59      -0.2733
      5  CB        35.3160   14.8140   63.9080 C.3    59  PHE59       0.0547
      6  CG        36.3570   14.7650   62.8170 C.ar   59  PHE59      -0.0202
      7  CD1       37.2380   13.6850   62.7230 C.ar   59  PHE59      -0.0042
      8  CD2       36.4520   15.7890   61.8800 C.ar   59  PHE59      -0.0042
      9  CE1       38.2030   13.6260   61.7230 C.ar   59  PHE59      -0.0003
     10  CE2       37.4180   15.7380   60.8770 C.ar   59  PHE59      -0.0003
     11  CZ        38.2970   14.6510   60.8030 C.ar   59  PHE59      -0.0000
     12  N         37.6070   16.8670   65.4390 N.am   60  PRO60      -0.2718
     13  CA        38.1070   18.2210   65.6210 C.3    60  PRO60       0.1535
     14  C         37.8460   19.0790   64.3960 C.2    60  PRO60       0.2599
     15  O         37.4660   18.5650   63.3470 O.2    60  PRO60      -0.2715
     16  CB        39.6160   18.0090   65.7860 C.3    60  PRO60       0.0310
     17  CG        39.8930   16.7740   65.0290 C.3    60  PRO60       0.0237
     18  CD        38.7120   15.8990   65.3040 C.3    60  PRO60       0.0939
     19  N         38.0420   20.3820   64.5440 N.am   61  HIS61      -0.1960
     20  CA        38.0640   21.2730   63.3990 C.3    61  HIS61       0.1787
     21  C         39.2720   20.9450   62.5150 C.2    61  HIS61       0.2620
     22  O         40.2890   20.4570   62.9890 O.2    61  HIS61      -0.2715
     23  CB        38.1040   22.7410   63.8590 C.3    61  HIS61       0.0785
     24  CG        36.9020   23.1600   64.6490 C.ar   61  HIS61       0.0821
     25  ND1       35.6880   23.4490   64.0630 N.ar   61  HIS61      -0.2267
     26  CD2       36.7260   23.3330   65.9810 C.ar   61  HIS61       0.1154
     27  CE1       34.8160   23.7790   64.9990 C.ar   61  HIS61       0.1986
     28  NE2       35.4190   23.7160   66.1730 N.ar   61  HIS61      -0.2212
     29  N         39.1540   21.1880   61.2250 N.am   62  ILE62      -0.1977
     30  CA        40.3100   21.0900   60.3690 C.3    62  ILE62       0.1596
     31  C         40.6410   22.4910   59.9010 C.2    62  ILE62       0.2287
     32  O         39.8210   23.1370   59.2760 O.2    62  ILE62      -0.2864
     33  CB        40.0510   20.1550   59.1860 C.3    62  ILE62       0.0276
     34  CG1       40.1020   18.7120   59.6560 C.3    62  ILE62       0.0022
     35  CG2       41.0720   20.3840   58.0650 C.3    62  ILE62       0.0022
     36  CD1       39.5040   17.7680   58.6800 C.3    62  ILE62       0.0001
     37  N         41.9960   25.7260   57.8730 N.3    64  ARG64      -0.1245
     38  CA        41.8530   26.0170   56.4570 C.3    64  ARG64       0.1563
     39  C         42.9880   26.9030   56.0150 C.2    64  ARG64       0.2260
     40  O         43.4420   27.7520   56.7850 O.2    64  ARG64      -0.2867
     41  CB        40.5460   26.7730   56.2210 C.3    64  ARG64       0.0307
     42  CG        40.3510   27.2770   54.7990 C.3    64  ARG64       0.0489
     43  CD        39.1300   28.1700   54.6900 C.3    64  ARG64       0.2205
     44  NE        37.9100   27.5330   55.1830 N.pl3  64  ARG64      -0.0865
     45  CZ        37.1530   26.7150   54.4610 C.cat  64  ARG64       0.5346
     46  NH1       37.4860   26.4300   53.1980 N.pl3  64  ARG64       0.1354
     47  NH2       36.0620   26.1770   55.0090 N.pl3  64  ARG64       0.1354
     48  N         44.5840   14.0920   49.9740 N.3    84  GLU84      -0.1231
     49  CA        43.3570   13.3500   49.7760 C.3    84  GLU84       0.1699
     50  C         42.2680   14.2050   49.1770 C.2    84  GLU84       0.2592
     51  O         42.2750   15.4250   49.2900 O.2    84  GLU84      -0.2718
     52  CB        42.8520   12.8080   51.0970 C.3    84  GLU84       0.0402
     53  CG        43.8470   11.9600   51.8330 C.3    84  GLU84       0.1161
     54  CD        43.3520   11.5450   53.1980 C.2    84  GLU84       0.3649
     55  OE1       42.1980   11.8720   53.5580 O.co2  84  GLU84      -0.2457
     56  OE2       44.1250   10.8840   53.9130 O.co2  84  GLU84      -0.2457
     57  N         41.3130   13.5330   48.5580 N.am   85  GLU85      -0.1966
     58  CA        40.1040   14.1480   48.0870 C.3    85  GLU85       0.1733
     59  C         39.2810   14.6040   49.2830 C.2    85  GLU85       0.2616
     60  O         39.0310   13.8370   50.1970 O.2    85  GLU85      -0.2715
     61  CB        39.3440   13.1190   47.2730 C.3    85  GLU85       0.0429
     62  CG        37.9590   13.5040   46.8780 C.3    85  GLU85       0.1163
     63  CD        37.2230   12.3830   46.1470 C.2    85  GLU85       0.3649
     64  OE1       37.4780   11.1820   46.4190 O.co2  85  GLU85      -0.2457
     65  OE2       36.3690   12.7100   45.2930 O.co2  85  GLU85      -0.2457
     66  N         38.8910   15.8740   49.2940 N.am   86  LYS86      -0.1963
     67  CA        37.8900   16.3520   50.2520 C.3    86  LYS86       0.1728
     68  C         36.5420   16.1340   49.6040 C.2    86  LYS86       0.2616
     69  O         36.2480   16.7440   48.5740 O.2    86  LYS86      -0.2715
     70  CB        38.0840   17.8280   50.6030 C.3    86  LYS86       0.0311
     71  CG        37.2220   18.2730   51.7680 C.3    86  LYS86       0.0038
     72  CD        37.2610   19.7760   51.9690 C.3    86  LYS86       0.0206
     73  CE        36.3930   20.2050   53.1540 C.3    86  LYS86       0.1093
     74  NZ        34.9380   20.4210   52.8370 N.3    86  LYS86      -0.1314
     75  N         35.7520   15.2360   50.1950 N.am   87  VAL87      -0.1977
     76  CA        34.4680   14.7880   49.6290 C.3    87  VAL87       0.1596
     77  C         33.3440   15.5680   50.3220 C.2    87  VAL87       0.2287
     78  O         33.3320   15.6790   51.5580 O.2    87  VAL87      -0.2864
     79  CB        34.2780   13.2410   49.7950 C.3    87  VAL87       0.0276
     80  CG1       32.8930   12.8080   49.4140 C.3    87  VAL87       0.0022
     81  CG2       35.2840   12.4690   48.9660 C.3    87  VAL87       0.0022
     82  N         29.9780   14.2520   57.7780 N.3    91  ASN91      -0.1240
     83  CA        30.9140   13.5600   58.6610 C.3    91  ASN91       0.1653
     84  C         30.2320   12.4650   59.4770 C.2    91  ASN91       0.2266
     85  O         29.2260   12.7080   60.1490 O.2    91  ASN91      -0.2867
     86  CB        31.5670   14.5910   59.5830 C.3    91  ASN91       0.1155
     87  CG        32.6820   14.0160   60.4200 C.2    91  ASN91       0.2627
     88  OD1       32.4440   13.2120   61.3130 O.2    91  ASN91      -0.2716
     89  ND2       33.9020   14.4580   60.1670 N.am   91  ASN91      -0.0877
     90  N         28.1760   14.6040   63.0130 N.3   106  ARG106     -0.1245
     91  CA        29.1630   15.5150   63.5780 C.3   106  ARG106      0.1563
     92  C         28.7630   16.0220   64.9470 C.2   106  ARG106      0.2260
     93  O         29.5570   15.9650   65.8890 O.2   106  ARG106     -0.2867
     94  CB        29.4590   16.6790   62.6370 C.3   106  ARG106      0.0307
     95  CG        30.6060   17.5570   63.1020 C.3   106  ARG106      0.0489
     96  CD        31.9350   16.9010   62.8830 C.3   106  ARG106      0.2205
     97  NE        33.0460   17.7400   63.3230 N.pl3 106  ARG106     -0.0865
     98  CZ        33.5850   18.7270   62.6050 C.cat 106  ARG106      0.5346
     99  NH1       33.1040   19.0260   61.4000 N.pl3 106  ARG106      0.1354
    100  NH2       34.6090   19.4220   63.0850 N.pl3 106  ARG106      0.1354
    101  N         33.2390   10.1710   55.1520 N.3   138  GLU138     -0.1245
    102  CA        32.2220   11.0370   54.5970 C.3   138  GLU138      0.1567
    103  C         31.1810   10.1850   53.9130 C.2   138  GLU138      0.2260
    104  O         31.5020    9.3180   53.0880 O.2   138  GLU138     -0.2867
    105  CB        32.8310   12.0290   53.6110 C.3   138  GLU138      0.0388
    106  CG        32.0360   13.2970   53.4520 C.3   138  GLU138      0.1160
    107  CD        32.2430   14.2830   54.5890 C.2   138  GLU138      0.3649
    108  OE1       32.8650   13.9160   55.5980 O.co2 138  GLU138     -0.2457
    109  OE2       31.7910   15.4380   54.4800 O.co2 138  GLU138     -0.2457
    110  N         38.2570    8.4370   55.7800 N.3   163  PHE163     -0.1241
    111  CA        39.3680    9.3760   55.7850 C.3   163  PHE163      0.1605
    112  C         40.1040    9.4340   57.1160 C.2   163  PHE163      0.2264
    113  O         41.1230   10.1110   57.2420 O.2   163  PHE163     -0.2867
    114  CB        38.9500   10.7750   55.3310 C.3   163  PHE163      0.0534
    115  CG        37.8230   11.3660   56.1220 C.ar  163  PHE163     -0.0203
    116  CD1       36.5780   11.5440   55.5320 C.ar  163  PHE163     -0.0042
    117  CD2       38.0010   11.7480   57.4520 C.ar  163  PHE163     -0.0042
    118  CE1       35.5300   12.0840   56.2420 C.ar  163  PHE163     -0.0003
    119  CE2       36.9450   12.2880   58.1770 C.ar  163  PHE163     -0.0003
    120  CZ        35.7010   12.4500   57.5710 C.ar  163  PHE163     -0.0000
    121  N         38.4300    7.7030   50.6440 N.3   191  VAL191     -0.1245
    122  CA        38.6670    8.9370   49.8770 C.3   191  VAL191      0.1561
    123  C         39.8510    8.7270   48.9380 C.2   191  VAL191      0.2260
    124  O         40.8360    8.0910   49.3150 O.2   191  VAL191     -0.2867
    125  CB        38.9510   10.1880   50.7880 C.3   191  VAL191      0.0252
    126  CG1       37.8400   10.4030   51.8140 C.3   191  VAL191      0.0019
    127  CG2       40.2830   10.0810   51.4980 C.3   191  VAL191      0.0019
    128  N         34.9220   19.2430   45.4960 N.3   218  GLU218     -0.1245
    129  CA        35.1310   20.1100   46.6570 C.3   218  GLU218      0.1567
    130  C         36.5540   20.7120   46.7930 C.2   218  GLU218      0.2260
    131  O         36.7340   21.9360   46.8950 O.2   218  GLU218     -0.2867
    132  CB        34.7510   19.3230   47.9110 C.3   218  GLU218      0.0388
    133  CG        34.9620   20.0430   49.2150 C.3   218  GLU218      0.1160
    134  CD        33.9060   21.1000   49.4830 C.2   218  GLU218      0.3649
    135  OE1       32.9420   21.2170   48.6900 O.co2 218  GLU218     -0.2457
    136  OE2       34.0460   21.8200   50.4940 O.co2 218  GLU218     -0.2457
    137  N         42.2960   17.6520   51.1500 N.3   221  ILE221     -0.1245
    138  CA        42.8610   17.7180   52.4830 C.3   221  ILE221      0.1561
    139  C         44.3120   17.2940   52.4110 C.2   221  ILE221      0.2260
    140  O         44.6520   16.3340   51.7240 O.2   221  ILE221     -0.2867
    141  CB        42.1320   16.8090   53.4620 C.3   221  ILE221      0.0252
    142  CG1       40.6270   17.1130   53.4800 C.3   221  ILE221      0.0019
    143  CG2       42.7410   16.9370   54.8480 C.3   221  ILE221      0.0019
    144  CD1       40.2870   18.5080   53.8170 C.3   221  ILE221      0.0001
    145  N         47.5400   15.9900   54.6520 N.3   223  LYS223     -0.1245
    146  CA        47.8440   15.3020   55.9140 C.3   223  LYS223      0.1561
    147  C         49.3110   14.8620   56.0290 C.2   223  LYS223      0.2260
    148  O         49.8660   14.2120   55.1200 O.2   223  LYS223     -0.2867
    149  CB        46.9340   14.0830   56.1000 C.3   223  LYS223      0.0271
    150  CG        45.4860   14.4080   56.3640 C.3   223  LYS223      0.0035
    151  CD        44.5780   13.2700   55.9460 C.3   223  LYS223      0.0206
    152  CE        43.1270   13.5470   56.2900 C.3   223  LYS223      0.1093
    153  NZ        42.2060   12.4320   55.9230 N.3   223  LYS223     -0.1314
    154  N         42.6760   21.9470   55.1760 N.3   232  LYS232     -0.1245
    155  CA        41.7450   21.9110   54.0420 C.3   232  LYS232      0.1561
    156  C         41.9390   23.0480   53.0330 C.2   232  LYS232      0.2260
    157  O         42.3010   24.1770   53.3830 O.2   232  LYS232     -0.2867
    158  CB        40.2960   21.8650   54.5190 C.3   232  LYS232      0.0271
    159  CG        39.8950   23.0040   55.4020 C.3   232  LYS232      0.0035
    160  CD        38.5160   22.7700   55.9770 C.3   232  LYS232      0.0206
    161  CE        38.0790   23.9270   56.8470 C.3   232  LYS232      0.1093
    162  NZ        36.9440   23.5210   57.7180 N.3   232  LYS232     -0.1314
    163  N         39.7060   24.2380   49.5710 N.3   234  VAL234     -0.1245
    164  CA        38.6000   24.0220   48.6380 C.3   234  VAL234      0.1561
    165  C         38.7880   24.7040   47.2810 C.2   234  VAL234      0.2260
    166  O         39.4840   25.7240   47.1630 O.2   234  VAL234     -0.2867
    167  CB        37.2530   24.4200   49.2520 C.3   234  VAL234      0.0252
    168  CG1       37.1300   23.8110   50.6360 C.3   234  VAL234      0.0019
    169  CG2       37.1270   25.9100   49.3190 C.3   234  VAL234      0.0019
@<TRIPOS>BOND
     1    65    63   ar
     2   128   129    1
     3    63    64   ar
     4    63    62    1
     5   129   130    1
     6   129   132    1
     7   130   131    2
     8    62    61    1
     9   166   165    2
    10    61    58    1
    11   165   164    1
    12   132   133    1
    13    58    57    1
    14    58    59    1
    15    57    50   am
    16    69    68    2
    17   164   167    1
    18   164   163    1
    19   135   134   ar
    20   123   124    2
    21   123   122    1
    22    81    79    1
    23    50    51    2
    24    50    49    1
    25   133   134    1
    26   167   169    1
    27   167   168    1
    28    59    66   am
    29    59    60    2
    30    66    67    1
    31    80    79    1
    32   134   136   ar
    33    68    75   am
    34    68    67    1
    35    76    79    1
    36    76    75    1
    37    76    77    1
    38    49    48    1
    39    49    52    1
    40   122   121    1
    41   122   125    1
    42    67    70    1
    43    77    78    2
    44    70    71    1
    45   125   127    1
    46   125   126    1
    47    52    53    1
    48   137   138    1
    49   140   139    2
    50    71    72    1
    51    53    54    1
    52    72    73    1
    53   139   138    1
    54   138   141    1
    55    74    73    1
    56   156   157    2
    57   156   155    1
    58   104   103    2
    59    54    55   ar
    60    54    56   ar
    61    46    45    1
    62   106   105    1
    63   106   107    1
    64   141   142    1
    65   141   143    1
    66   142   144    1
    67   105   102    1
    68   103   102    1
    69   155   158    1
    70   155   154    1
    71    45    47    1
    72    45    44    2
    73   109   107   ar
    74   158   159    1
    75   107   108   ar
    76   102   101    1
    77   145   146    1
    78    43    42    1
    79    43    44    1
    80    42    41    1
    81   148   147    2
    82   114   111    1
    83   114   115    1
    84   159   160    1
    85   116   115   ar
    86   116   118   ar
    87   110   111    1
    88   111   112    1
    89   146   147    1
    90   146   149    1
    91   153   152    1
    92   151   152    1
    93   151   150    1
    94   160   161    1
    95    39    38    1
    96    39    40    2
    97   149   150    1
    98   115   117   ar
    99    41    38    1
   100   118   120   ar
   101    38    37    1
   102   161   162    1
   103   112   113    2
   104   117   119   ar
   105   120   119   ar
   106    82    83    1
   107    35    33    1
   108    83    84    1
   109    83    86    1
   110    36    34    1
   111    33    34    1
   112    33    30    1
   113    32    31    2
   114    84    85    2
   115    86    87    1
   116    31    30    1
   117    89    87   am
   118    30    29    1
   119    87    88    2
   120    11    10   ar
   121    11     9   ar
   122    10     8   ar
   123    29    21   am
   124    99    98    1
   125     9     7   ar
   126     8     6   ar
   127    21    22    2
   128    21    20    1
   129    98   100    1
   130    98    97    2
   131    94    95    1
   132    94    91    1
   133     7     6   ar
   134     6     5    1
   135    96    95    1
   136    96    97    1
   137    90    91    1
   138    15    14    2
   139    20    23    1
   140    20    19    1
   141    91    92    1
   142    23    24    1
   143     5     2    1
   144    25    24   ar
   145    25    27   ar
   146    14    19   am
   147    14    13    1
   148    24    26   ar
   149    92    93    2
   150    27    28   ar
   151    17    18    1
   152    17    16    1
   153     2     3    1
   154     2     1    1
   155    18    12    1
   156     3     4    2
   157     3    12   am
   158    12    13    1
   159    13    16    1
   160    26    28   ar
