@<TRIPOS>MOLECULE
tmp/2vugB06.pdb
 99 94 0 0 0
SMALL
GASTEIGER

@<TRIPOS>ATOM
      1  N         42.8850   22.6050   39.7610 N.3   210  GLU210     -0.1245
      2  CA        42.2570   23.0270   38.5240 C.3   210  GLU210      0.1567
      3  C         41.2690   21.9660   38.0170 C.2   210  GLU210      0.2260
      4  O         40.1040   22.2690   37.7460 O.2   210  GLU210     -0.2867
      5  CB        43.3150   23.3820   37.4640 C.3   210  GLU210      0.0388
      6  CG        42.9850   24.6440   36.6520 C.3   210  GLU210      0.1160
      7  CD        42.6960   25.8600   37.5400 C.2   210  GLU210      0.3649
      8  OE1       43.4770   26.1090   38.4950 O.co2 210  GLU210     -0.2457
      9  OE2       41.6840   26.5610   37.2950 O.co2 210  GLU210     -0.2457
     10  N         38.2160   21.3050   40.1600 N.3   213  SER213     -0.1202
     11  CA        37.2910   22.4310   40.0620 C.3   213  SER213      0.2020
     12  C         36.4980   22.3990   38.7600 C.2   213  SER213      0.2618
     13  O         35.2960   22.6650   38.7350 O.2   213  SER213     -0.2717
     14  CB        38.0380   23.7440   40.1790 C.3   213  SER213      0.2103
     15  OG        37.1420   24.8070   40.4120 O.3   213  SER213     -0.2182
     16  N         37.1680   22.0610   37.6740 N.am  214  LYS214     -0.1979
     17  CA        36.4810   21.8980   36.4010 C.3   214  LYS214      0.1596
     18  C         35.4460   20.7620   36.4650 C.2   214  LYS214      0.2287
     19  O         34.4750   20.7330   35.6950 O.2   214  LYS214     -0.2864
     20  CB        37.4950   21.6450   35.2850 C.3   214  LYS214      0.0298
     21  CG        36.8780   21.5150   33.9050 C.3   214  LYS214      0.0038
     22  CD        37.9670   21.3820   32.8470 C.3   214  LYS214      0.0206
     23  CE        37.4370   20.6630   31.6140 C.3   214  LYS214      0.1093
     24  NZ        38.5670   20.2770   30.7370 N.3   214  LYS214     -0.1314
     25  N         37.8120   26.6710   43.5990 N.3   236  PRO236     -0.2102
     26  CA        36.9490   27.8190   43.2570 C.3   236  PRO236      0.1504
     27  C         35.5080   27.3440   43.1420 C.2   236  PRO236      0.2575
     28  O         34.5890   28.0010   43.6600 O.2   236  PRO236     -0.2718
     29  CB        37.4620   28.2690   41.8860 C.3   236  PRO236      0.0282
     30  CG        38.8590   27.7820   41.8420 C.3   236  PRO236      0.0208
     31  CD        38.9200   26.5070   42.6410 C.3   236  PRO236      0.0893
     32  N         35.3210   26.1910   42.4970 N.am  237  TYR237     -0.1977
     33  CA        33.9860   25.6690   42.2590 C.3   237  TYR237      0.1639
     34  C         33.1980   25.5440   43.5630 C.2   237  TYR237      0.2290
     35  O         32.0390   25.9430   43.6250 O.2   237  TYR237     -0.2864
     36  CB        33.9950   24.3260   41.4980 C.3   237  TYR237      0.0560
     37  CG        32.6320   23.6600   41.5450 C.ar  237  TYR237     -0.0198
     38  CD1       31.7100   23.8280   40.5020 C.ar  237  TYR237     -0.0009
     39  CD2       32.2470   22.8900   42.6640 C.ar  237  TYR237     -0.0009
     40  CE1       30.4420   23.2260   40.5550 C.ar  237  TYR237      0.0417
     41  CE2       30.9890   22.2960   42.7270 C.ar  237  TYR237      0.0417
     42  CZ        30.0900   22.4760   41.6640 C.ar  237  TYR237      0.1957
     43  OH        28.8540   21.8990   41.7400 O.3   237  TYR237     -0.2866
     44  N         32.0140   29.1750   44.6410 N.3   240  ILE240     -0.1245
     45  CA        30.9080   29.6740   43.8440 C.3   240  ILE240      0.1561
     46  C         29.6640   28.8160   44.0670 C.2   240  ILE240      0.2260
     47  O         28.5860   29.3480   44.3090 O.2   240  ILE240     -0.2867
     48  CB        31.2890   29.7450   42.3720 C.3   240  ILE240      0.0252
     49  CG1       32.2320   30.9260   42.1690 C.3   240  ILE240      0.0019
     50  CG2       30.0800   29.9120   41.5070 C.3   240  ILE240      0.0019
     51  CD1       33.1250   30.7980   40.9760 C.3   240  ILE240      0.0001
     52  N         42.0990   33.1150   45.7030 N.3   268  TYR268     -0.1241
     53  CA        42.4300   32.2430   44.5910 C.3   268  TYR268      0.1605
     54  C         42.8700   33.1210   43.4230 C.2   268  TYR268      0.2264
     55  O         43.9700   32.9420   42.8870 O.2   268  TYR268     -0.2867
     56  CB        41.2570   31.3390   44.2010 C.3   268  TYR268      0.0534
     57  CG        41.4600   30.5870   42.9020 C.ar  268  TYR268     -0.0201
     58  CD1       42.3070   29.4830   42.8300 C.ar  268  TYR268     -0.0009
     59  CD2       40.8020   30.9820   41.7480 C.ar  268  TYR268     -0.0009
     60  CE1       42.4940   28.7970   41.6370 C.ar  268  TYR268      0.0417
     61  CE2       40.9870   30.3120   40.5480 C.ar  268  TYR268      0.0417
     62  CZ        41.8330   29.2250   40.4940 C.ar  268  TYR268      0.1957
     63  OH        41.9910   28.5610   39.2900 O.3   268  TYR268     -0.2866
     64  N         39.4200   35.7480   31.7130 N.3   278  GLU278     -0.1245
     65  CA        39.2040   34.6880   32.6690 C.3   278  GLU278      0.1567
     66  C         38.6860   35.2860   33.9690 C.2   278  GLU278      0.2260
     67  O         37.8500   34.6820   34.6450 O.2   278  GLU278     -0.2867
     68  CB        40.4680   33.8690   32.8950 C.3   278  GLU278      0.0388
     69  CG        40.2000   32.6130   33.6950 C.3   278  GLU278      0.1160
     70  CD        41.4540   31.8730   34.0760 C.2   278  GLU278      0.3649
     71  OE1       42.5650   32.3830   33.7980 O.co2 278  GLU278     -0.2457
     72  OE2       41.3180   30.7750   34.6680 O.co2 278  GLU278     -0.2457
     73  N         34.9640   36.2630   33.5400 N.3   281  ARG281     -0.1231
     74  CA        34.1690   35.0430   33.6210 C.3   281  ARG281      0.1694
     75  C         33.8720   34.6700   35.0620 C.2   281  ARG281      0.2591
     76  O         32.7460   34.2950   35.3960 O.2   281  ARG281     -0.2718
     77  CB        34.9170   33.8860   32.9800 C.3   281  ARG281      0.0321
     78  CG        34.7580   33.6840   31.4790 C.3   281  ARG281      0.0489
     79  CD        35.3740   32.3260   31.0950 C.3   281  ARG281      0.2205
     80  NE        35.0090   31.2940   32.0820 N.pl3 281  ARG281     -0.0865
     81  CZ        35.7970   30.8500   33.0660 C.cat 281  ARG281      0.5346
     82  NH1       37.0340   31.3200   33.2100 N.pl3 281  ARG281      0.1354
     83  NH2       35.3480   29.9260   33.9090 N.pl3 281  ARG281      0.1354
     84  N         34.8820   34.7630   35.9140 N.am  282  VAL282     -0.1980
     85  CA        34.7030   34.4200   37.3110 C.3   282  VAL282      0.1595
     86  C         33.8070   35.4350   38.0120 C.2   282  VAL282      0.2287
     87  O         32.8700   35.0560   38.7220 O.2   282  VAL282     -0.2864
     88  CB        36.0480   34.2220   38.0160 C.3   282  VAL282      0.0276
     89  CG1       35.8480   33.8090   39.4640 C.3   282  VAL282      0.0022
     90  CG2       36.8680   33.1670   37.2500 C.3   282  VAL282      0.0022
     91  N         30.2830   34.7950   37.1290 N.3   285  GLU285     -0.1245
     92  CA        29.8300   33.6220   37.8670 C.3   285  GLU285      0.1567
     93  C         29.5830   33.8780   39.3440 C.2   285  GLU285      0.2260
     94  O         28.6750   33.2800   39.9360 O.2   285  GLU285     -0.2867
     95  CB        30.8000   32.4780   37.6840 C.3   285  GLU285      0.0388
     96  CG        30.5320   31.7250   36.4180 C.3   285  GLU285      0.1160
     97  CD        31.5290   30.6270   36.2180 C.2   285  GLU285      0.3649
     98  OE1       31.6980   29.8040   37.1560 O.co2 285  GLU285     -0.2457
     99  OE2       32.1520   30.5980   35.1280 O.co2 285  GLU285     -0.2457
@<TRIPOS>BOND
     1    24    23    1
     2    79    78    1
     3    79    80    1
     4    78    77    1
     5    23    22    1
     6    64    65    1
     7    80    81    2
     8    65    68    1
     9    65    66    1
    10    22    21    1
    11    68    69    1
    12    77    74    1
    13    81    82    1
    14    81    83    1
    15    73    74    1
    16    74    75    1
    17    69    70    1
    18    71    70   ar
    19    21    20    1
    20    66    67    2
    21    70    72   ar
    22    75    76    2
    23    75    84   am
    24    99    97   ar
    25    20    17    1
    26    19    18    2
    27    84    85    1
    28    97    96    1
    29    97    98   ar
    30    17    18    1
    31    17    16    1
    32    96    95    1
    33     6     5    1
    34     6     7    1
    35    91    92    1
    36    90    88    1
    37     9     7   ar
    38    85    86    1
    39    85    88    1
    40     5     2    1
    41     7     8   ar
    42    16    12   am
    43    95    92    1
    44     4     3    2
    45    92    93    1
    46    86    87    2
    47    88    89    1
    48     3     2    1
    49     2     1    1
    50    13    12    2
    51    12    11    1
    52    63    62    1
    53    93    94    2
    54    11    10    1
    55    11    14    1
    56    14    15    1
    57    62    61   ar
    58    62    60   ar
    59    38    40   ar
    60    38    37   ar
    61    61    59   ar
    62    40    42   ar
    63    51    49    1
    64    36    37    1
    65    36    33    1
    66    50    48    1
    67    37    39   ar
    68    60    58   ar
    69    42    43    1
    70    42    41   ar
    71    59    57   ar
    72    30    29    1
    73    30    31    1
    74    29    26    1
    75    49    48    1
    76    33    32    1
    77    33    34    1
    78    48    45    1
    79    32    27   am
    80    31    25    1
    81    39    41   ar
    82    58    57   ar
    83    55    54    2
    84    57    56    1
    85    27    26    1
    86    27    28    2
    87    26    25    1
    88    54    53    1
    89    34    35    2
    90    45    46    1
    91    45    44    1
    92    46    47    2
    93    56    53    1
    94    53    52    1
