@<TRIPOS>MOLECULE
tmp/2vugB05.pdb
 97 94 0 0 0
SMALL
GASTEIGER

@<TRIPOS>ATOM
      1  N         22.2730    2.3040   57.3600 N.3   117  ARG117     -0.1245
      2  CA        22.9920    2.1190   56.0960 C.3   117  ARG117      0.1563
      3  C         24.4500    1.6520   56.2010 C.2   117  ARG117      0.2260
      4  O         24.9140    0.9840   55.2790 O.2   117  ARG117     -0.2867
      5  CB        22.8870    3.3620   55.2130 C.3   117  ARG117      0.0307
      6  CG        21.4640    3.8080   54.8910 C.3   117  ARG117      0.0489
      7  CD        20.7620    2.8070   54.0420 C.3   117  ARG117      0.2205
      8  NE        21.5880    2.4160   52.9080 N.pl3 117  ARG117     -0.0865
      9  CZ        21.4610    2.9190   51.6860 C.cat 117  ARG117      0.5346
     10  NH1       20.5400    3.8400   51.4480 N.pl3 117  ARG117      0.1354
     11  NH2       22.2570    2.5010   50.6990 N.pl3 117  ARG117      0.1354
     12  N         26.1540   -1.5180   54.8120 N.3   120  ASP120     -0.1239
     13  CA        26.3520   -1.6270   53.3710 C.3   120  ASP120      0.1674
     14  C         27.7590   -1.2580   52.9150 C.2   120  ASP120      0.2266
     15  O         28.1190   -1.5060   51.7630 O.2   120  ASP120     -0.2867
     16  CB        25.3620   -0.7450   52.6210 C.3   120  ASP120      0.1410
     17  CG        23.9410   -1.1780   52.8100 C.2   120  ASP120      0.3668
     18  OD1       23.7260   -2.2850   53.3380 O.co2 120  ASP120     -0.2456
     19  OD2       23.0330   -0.4090   52.4280 O.co2 120  ASP120     -0.2456
     20  N         22.1240    6.5650   45.2180 N.3   157  ASP157     -0.1239
     21  CA        22.1360    7.0290   46.6150 C.3   157  ASP157      0.1674
     22  C         23.4950    6.9720   47.2690 C.2   157  ASP157      0.2266
     23  O         24.3760    6.3000   46.7690 O.2   157  ASP157     -0.2867
     24  CB        21.1540    6.2100   47.4570 C.3   157  ASP157      0.1410
     25  CG        21.7040    4.8460   47.8590 C.2   157  ASP157      0.3668
     26  OD1       22.1900    4.1150   46.9840 O.co2 157  ASP157     -0.2456
     27  OD2       21.6340    4.4910   49.0530 O.co2 157  ASP157     -0.2456
     28  N         17.2290    6.3710   50.3960 N.3   314  ARG314     -0.1231
     29  CA        16.8010    4.9940   50.3270 C.3   314  ARG314      0.1694
     30  C         16.9280    4.3790   51.7140 C.2   314  ARG314      0.2592
     31  O         17.8710    4.6660   52.4570 O.2   314  ARG314     -0.2718
     32  CB        17.6250    4.2350   49.3100 C.3   314  ARG314      0.0321
     33  CG        17.6530    4.8980   47.9630 C.3   314  ARG314      0.0489
     34  CD        18.2230    3.9530   46.9380 C.3   314  ARG314      0.2205
     35  NE        18.3970    4.5680   45.6260 N.pl3 314  ARG314     -0.0865
     36  CZ        18.9020    3.9380   44.5700 C.cat 314  ARG314      0.5346
     37  NH1       19.2940    2.6710   44.6660 N.pl3 314  ARG314      0.1354
     38  NH2       19.0180    4.5800   43.4180 N.pl3 314  ARG314      0.1354
     39  N         15.9500    3.5660   52.0900 N.am  315  VAL315     -0.1966
     40  CA        16.0330    2.8670   53.3640 C.3   315  VAL315      0.1727
     41  C         15.6990    1.4050   53.2170 C.2   315  VAL315      0.2616
     42  O         14.9780    1.0190   52.3010 O.2   315  VAL315     -0.2715
     43  CB        15.1060    3.4580   54.4290 C.3   315  VAL315      0.0290
     44  CG1       15.6910    4.7420   54.9990 C.3   315  VAL315      0.0023
     45  CG2       13.6980    3.6430   53.8710 C.3   315  VAL315      0.0023
     46  N         16.2400    0.5980   54.1240 N.am  316  LYS316     -0.1977
     47  CA        15.8470   -0.7930   54.2720 C.3   316  LYS316      0.1596
     48  C         14.4830   -0.8330   54.9340 C.2   316  LYS316      0.2287
     49  O         13.5490   -1.4120   54.3960 O.2   316  LYS316     -0.2864
     50  CB        16.8740   -1.5470   55.1230 C.3   316  LYS316      0.0298
     51  CG        18.1480   -1.9050   54.3840 C.3   316  LYS316      0.0038
     52  CD        19.3340   -1.9840   55.3210 C.3   316  LYS316      0.0206
     53  CE        20.6190   -2.2060   54.5450 C.3   316  LYS316      0.1093
     54  NZ        21.8000   -1.7400   55.3170 N.3   316  LYS316     -0.1314
     55  N         11.6850   -0.1880   45.1100 N.3   343  ILE343     -0.1231
     56  CA        13.1240   -0.2900   45.2370 C.3   343  ILE343      0.1692
     57  C         13.4410   -1.6640   45.8090 C.2   343  ILE343      0.2592
     58  O         12.9350   -2.0330   46.8700 O.2   343  ILE343     -0.2718
     59  CB        13.6940    0.8520   46.1490 C.3   343  ILE343      0.0266
     60  CG1       13.2450    2.2280   45.6500 C.3   343  ILE343      0.0019
     61  CG2       15.2200    0.8060   46.2440 C.3   343  ILE343      0.0020
     62  CD1       13.6570    2.5590   44.2020 C.3   343  ILE343      0.0001
     63  N         14.2620   -2.4230   45.0860 N.am  344  LYS344     -0.1966
     64  CA        14.8160   -3.6620   45.6100 C.3   344  LYS344      0.1728
     65  C         15.3270   -3.4140   47.0270 C.2   344  LYS344      0.2616
     66  O         15.9150   -2.3740   47.3090 O.2   344  LYS344     -0.2715
     67  CB        15.9710   -4.1410   44.7380 C.3   344  LYS344      0.0311
     68  CG        15.5790   -4.6230   43.3470 C.3   344  LYS344      0.0038
     69  CD        16.7810   -4.6210   42.3610 C.3   344  LYS344      0.0206
     70  CE        17.7670   -5.7990   42.5830 C.3   344  LYS344      0.1093
     71  NZ        18.4070   -5.8590   43.9400 N.3   344  LYS344     -0.1314
     72  N         15.0840   -4.3670   47.9180 N.am  345  ASP345     -0.1957
     73  CA        15.6010   -4.3070   49.2850 C.3   345  ASP345      0.1843
     74  C         15.2120   -3.0450   50.0310 C.2   345  ASP345      0.2662
     75  O         15.8410   -2.6960   51.0240 O.2   345  ASP345     -0.2711
     76  CB        17.1270   -4.4780   49.3140 C.3   345  ASP345      0.1450
     77  CG        17.5830   -5.7620   48.6510 C.2   345  ASP345      0.3671
     78  OD1       17.4200   -6.8400   49.2620 O.co2 345  ASP345     -0.2456
     79  OD2       18.1060   -5.6880   47.5150 O.co2 345  ASP345     -0.2456
     80  N         14.1840   -2.3530   49.5550 N.am  346  GLY346     -0.1716
     81  CA        13.6320   -1.2470   50.3200 C.2   346  GLY346      0.1480
     82  C         12.7990   -0.2220   49.5840 C.2   346  GLY346      0.2820
     83  O         12.1000   -0.5310   48.6160 O.2   346  GLY346     -0.2669
     84  N         12.8930    1.0140   50.0700 N.am  347  TRP347     -0.1939
     85  CA        12.0230    2.1090   49.6610 C.3   347  TRP347      0.1643
     86  C         12.8180    3.3840   49.4060 C.2   347  TRP347      0.2290
     87  O         13.6950    3.7440   50.2030 O.2   347  TRP347     -0.2864
     88  CB        10.9970    2.4070   50.7570 C.3   347  TRP347      0.0577
     89  CG        10.7150    1.2620   51.6870 C.ar  347  TRP347      0.0006
     90  CD1       11.5840    0.6850   52.5660 C.ar  347  TRP347      0.0946
     91  CD2        9.4720    0.5790   51.8470 C.ar  347  TRP347      0.0152
     92  NE1       10.9640   -0.3260   53.2520 N.ar  347  TRP347     -0.2442
     93  CE2        9.6650   -0.4110   52.8330 C.ar  347  TRP347      0.0810
     94  CE3        8.2110    0.7080   51.2550 C.ar  347  TRP347      0.0012
     95  CZ2        8.6490   -1.2710   53.2370 C.ar  347  TRP347      0.0191
     96  CZ3        7.2020   -0.1450   51.6530 C.ar  347  TRP347      0.0001
     97  CH2        7.4250   -1.1240   52.6350 C.ar  347  TRP347      0.0015
@<TRIPOS>BOND
     1    69    70    1
     2    69    68    1
     3    70    71    1
     4    68    67    1
     5    38    36    1
     6    62    60    1
     7    36    37    1
     8    36    35    2
     9    67    64    1
    10    63    64    1
    11    63    57   am
    12    55    56    1
    13    20    21    1
    14    56    57    1
    15    56    59    1
    16    64    65    1
    17    35    34    1
    18    60    59    1
    19    57    58    2
    20    59    61    1
    21    21    22    1
    22    21    24    1
    23    23    22    2
    24    34    33    1
    25    26    25   ar
    26    65    66    2
    27    65    72   am
    28    24    25    1
    29    79    77   ar
    30    25    27   ar
    31    72    73    1
    32    33    32    1
    33    83    82    2
    34    77    78   ar
    35    77    76    1
    36    73    76    1
    37    73    74    1
    38    32    29    1
    39    86    85    1
    40    86    87    2
    41    80    74    1
    42    80    81    2
    43    82    84   am
    44    82    81    1
    45    85    84    1
    46    85    88    1
    47    74    75    2
    48    29    28    1
    49    29    30    1
    50    11     9    1
    51    88    89    1
    52    94    96   ar
    53    94    91   ar
    54    10     9    1
    55    96    97   ar
    56     9     8    2
    57    89    91   ar
    58    89    90   ar
    59    30    39   am
    60    30    31    2
    61    15    14    2
    62    91    93   ar
    63    39    40    1
    64    42    41    2
    65    19    17   ar
    66    90    92   ar
    67    16    17    1
    68    16    13    1
    69    97    95   ar
    70    17    18   ar
    71    93    95   ar
    72    93    92   ar
    73     8     7    1
    74    14    13    1
    75    41    40    1
    76    41    46   am
    77    40    43    1
    78    13    12    1
    79    45    43    1
    80     7     6    1
    81    46    47    1
    82    47    48    1
    83    47    50    1
    84    51    50    1
    85    51    52    1
    86    49    48    2
    87    43    44    1
    88    53    54    1
    89    53    52    1
    90     6     5    1
    91     5     2    1
    92     4     3    2
    93     2     3    1
    94     2     1    1
