@<TRIPOS>MOLECULE
tmp/2vulA02.pdb
 149 144 0 0 0
SMALL
GASTEIGER

@<TRIPOS>ATOM
      1  N          6.9820   10.9140   12.2350 N.3    10  THR10      -0.1218
      2  CA         5.7010   11.2080   12.9040 C.3    10  THR10       0.1862
      3  C          4.9360   12.2440   12.0950 C.2    10  THR10       0.2287
      4  O          5.5050   12.9080   11.2040 O.2    10  THR10      -0.2866
      5  CB         5.9040   11.7840   14.3460 C.3    10  THR10       0.1770
      6  OG1        6.5700   13.0440   14.2610 O.3    10  THR10      -0.2211
      7  CG2        6.7560   10.8530   15.2150 C.3    10  THR10       0.0375
      8  N         -2.7380   11.8680   15.2790 N.3    17  PHE17      -0.1241
      9  CA        -1.2820   11.7690   15.3710 C.3    17  PHE17       0.1605
     10  C         -0.8560   10.3470   14.9920 C.2    17  PHE17       0.2264
     11  O         -1.5990    9.3820   15.2530 O.2    17  PHE17      -0.2867
     12  CB        -0.8310   12.0410   16.8020 C.3    17  PHE17       0.0534
     13  CG         0.6590   12.0310   16.9800 C.ar   17  PHE17      -0.0203
     14  CD1        1.4420   13.0650   16.4510 C.ar   17  PHE17      -0.0042
     15  CD2        1.2880   10.9840   17.6710 C.ar   17  PHE17      -0.0042
     16  CE1        2.8470   13.0440   16.5980 C.ar   17  PHE17      -0.0003
     17  CE2        2.6710   10.9720   17.8350 C.ar   17  PHE17      -0.0003
     18  CZ         3.4500   11.9860   17.3030 C.ar   17  PHE17      -0.0000
     19  N          2.9530    7.8730   15.0330 N.3    19  SER19      -0.1217
     20  CA         4.3970    7.6970   15.1610 C.3    19  SER19       0.1889
     21  C          4.7300    6.3330   14.5860 C.2    19  SER19       0.2288
     22  O          4.0190    5.3460   14.8540 O.2    19  SER19      -0.2866
     23  CB         4.8360    7.8030   16.6300 C.3    19  SER19       0.2089
     24  OG         6.2280    7.5610   16.7670 O.3    19  SER19      -0.2183
     25  N          8.2180    4.1630   14.2550 N.3    21  TRP21      -0.1241
     26  CA         9.6280    4.0960   14.6240 C.3    21  TRP21       0.1605
     27  C         10.1730    2.7020   14.3530 C.2    21  TRP21       0.2264
     28  O          9.4670    1.7100   14.5610 O.2    21  TRP21      -0.2867
     29  CB         9.8620    4.4600   16.0990 C.3    21  TRP21       0.0550
     30  CG        11.3280    4.3960   16.4840 C.ar   21  TRP21       0.0003
     31  CD1       12.2510    5.4110   16.3900 C.ar   21  TRP21       0.0946
     32  CD2       12.0490    3.2380   16.9540 C.ar   21  TRP21       0.0152
     33  NE1       13.4920    4.9530   16.7880 N.ar   21  TRP21      -0.2442
     34  CE2       13.3900    3.6290   17.1420 C.ar   21  TRP21       0.0810
     35  CE3       11.6760    1.9180   17.2660 C.ar   21  TRP21       0.0012
     36  CZ2       14.3620    2.7450   17.6110 C.ar   21  TRP21       0.0191
     37  CZ3       12.6420    1.0390   17.7260 C.ar   21  TRP21       0.0001
     38  CH2       13.9640    1.4610   17.9050 C.ar   21  TRP21       0.0015
     39  N         13.8080   -4.0140   16.1890 N.3    47  ASN47      -0.1240
     40  CA        12.7050   -3.4330   16.9860 C.3    47  ASN47       0.1653
     41  C         11.9820   -2.3400   16.1940 C.2    47  ASN47       0.2266
     42  O         12.6280   -1.4690   15.6020 O.2    47  ASN47      -0.2867
     43  CB        13.2470   -2.8560   18.2970 C.3    47  ASN47       0.1155
     44  CG        12.1530   -2.5590   19.3220 C.2    47  ASN47       0.2627
     45  OD1       11.1000   -3.2440   19.3890 O.2    47  ASN47      -0.2716
     46  ND2       12.4090   -1.5690   20.1540 N.am   47  ASN47      -0.0877
     47  N          8.0240    0.0920   16.4750 N.3    49  VAL49      -0.1245
     48  CA         6.7800    0.3900   17.1890 C.3    49  VAL49       0.1561
     49  C          6.1080    1.5240   16.4140 C.2    49  VAL49       0.2260
     50  O          6.7780    2.4990   16.0440 O.2    49  VAL49      -0.2867
     51  CB         7.0020    0.9580   18.6360 C.3    49  VAL49       0.0252
     52  CG1        5.6490    0.9940   19.4250 C.3    49  VAL49       0.0019
     53  CG2        8.0550    0.2410   19.4180 C.3    49  VAL49       0.0019
     54  N          0.0280    2.5270   24.0070 N.3    79  TYR79      -0.1241
     55  CA         1.4510    2.7720   24.1640 C.3    79  TYR79       0.1605
     56  C          1.7390    4.2730   24.2330 C.2    79  TYR79       0.2264
     57  O          1.2330    5.0740   23.4340 O.2    79  TYR79      -0.2867
     58  CB         2.1910    2.1330   22.9890 C.3    79  TYR79       0.0534
     59  CG         3.6710    2.4520   22.9290 C.ar   79  TYR79      -0.0201
     60  CD1        4.5940    1.7160   23.6620 C.ar   79  TYR79      -0.0009
     61  CD2        4.1410    3.5040   22.1350 C.ar   79  TYR79      -0.0009
     62  CE1        5.9530    2.0170   23.6160 C.ar   79  TYR79       0.0417
     63  CE2        5.4960    3.7930   22.0630 C.ar   79  TYR79       0.0417
     64  CZ         6.3940    3.0570   22.8180 C.ar   79  TYR79       0.1957
     65  OH         7.7450    3.3590   22.7580 O.3    79  TYR79      -0.2866
     66  N          4.3270    7.6900   26.2350 N.3    81  TRP81      -0.1241
     67  CA         5.4340    8.1900   27.0370 C.3    81  TRP81       0.1605
     68  C          5.0070    9.3660   27.8900 C.2    81  TRP81       0.2264
     69  O          4.0660   10.0910   27.5320 O.2    81  TRP81      -0.2867
     70  CB         6.5730    8.6740   26.1430 C.3    81  TRP81       0.0550
     71  CG         7.2860    7.6170   25.3950 C.ar   81  TRP81       0.0003
     72  CD1        6.9070    7.0540   24.2160 C.ar   81  TRP81       0.0946
     73  CD2        8.5300    7.0150   25.7580 C.ar   81  TRP81       0.0152
     74  NE1        7.8540    6.1290   23.8100 N.ar   81  TRP81      -0.2442
     75  CE2        8.8550    6.0790   24.7440 C.ar   81  TRP81       0.0810
     76  CE3        9.3970    7.1570   26.8560 C.ar   81  TRP81       0.0012
     77  CZ2       10.0290    5.3020   24.7830 C.ar   81  TRP81       0.0191
     78  CZ3       10.5640    6.3840   26.8950 C.ar   81  TRP81       0.0001
     79  CH2       10.8610    5.4670   25.8740 C.ar   81  TRP81       0.0015
     80  N          8.0720    4.9180   29.7610 N.3    88  GLU88      -0.1245
     81  CA         7.4400    4.3020   28.6070 C.3    88  GLU88       0.1567
     82  C          6.3690    3.3880   29.2020 C.2    88  GLU88       0.2260
     83  O          6.6760    2.4950   30.0100 O.2    88  GLU88      -0.2867
     84  CB         8.4580    3.4940   27.8320 C.3    88  GLU88       0.0388
     85  CG         7.9200    2.7390   26.6070 C.3    88  GLU88       0.1160
     86  CD         9.0200    1.9640   25.8880 C.2    88  GLU88       0.3649
     87  OE1        9.7740    1.2560   26.5700 O.co2  88  GLU88      -0.2457
     88  OE2        9.1040    2.0440   24.6360 O.co2  88  GLU88      -0.2457
     89  N         14.5410   -0.3220   31.4680 N.3   125  ARG125     -0.1245
     90  CA        15.2740   -0.5200   30.2300 C.3   125  ARG125      0.1563
     91  C         16.5700    0.2530   30.3220 C.2   125  ARG125      0.2260
     92  O         16.5810    1.3850   30.7810 O.2   125  ARG125     -0.2867
     93  CB        14.4750    0.0240   29.0330 C.3   125  ARG125      0.0307
     94  CG        13.1470   -0.6580   28.8550 C.3   125  ARG125      0.0489
     95  CD        13.3040   -2.0010   28.1780 C.3   125  ARG125      0.2205
     96  NE        13.4330   -1.8570   26.7310 N.pl3 125  ARG125     -0.0865
     97  CZ        14.4460   -2.3470   26.0200 C.cat 125  ARG125      0.5346
     98  NH1       15.4200   -3.0240   26.6310 N.pl3 125  ARG125      0.1354
     99  NH2       14.4850   -2.1660   24.6970 N.pl3 125  ARG125      0.1354
    100  N         16.1580    3.0580   23.1600 N.3   129  PRO129     -0.2102
    101  CA        15.6620    4.2560   22.4730 C.3   129  PRO129      0.1504
    102  C         14.5050    4.8590   23.2470 C.2   129  PRO129      0.2576
    103  O         13.7160    4.1350   23.8370 O.2   129  PRO129     -0.2718
    104  CB        15.1560    3.7210   21.1240 C.3   129  PRO129      0.0282
    105  CG        15.8340    2.4120   20.9450 C.3   129  PRO129      0.0208
    106  CD        16.0350    1.8500   22.3200 C.3   129  PRO129      0.0893
    107  N         14.4410    6.1860   23.2610 N.am  130  SER130     -0.1938
    108  CA        13.3690    6.9000   23.9370 C.3   130  SER130      0.2055
    109  C         13.0980    8.1840   23.1910 C.2   130  SER130      0.2642
    110  O         13.8210    8.5370   22.2610 O.2   130  SER130     -0.2714
    111  CB        13.7230    7.1990   25.4080 C.3   130  SER130      0.2130
    112  OG        14.4540    8.4110   25.5360 O.3   130  SER130     -0.2179
    113  N         12.0720    8.8980   23.6150 N.am  131  ILE131     -0.1977
    114  CA        11.7130   10.1690   22.9980 C.3   131  ILE131      0.1596
    115  C         12.7280   11.2990   23.2790 C.2   131  ILE131      0.2287
    116  O         12.6030   12.3900   22.7220 O.2   131  ILE131     -0.2864
    117  CB        10.2940   10.6190   23.4300 C.3   131  ILE131      0.0276
    118  CG1       10.1970   10.8260   24.9460 C.3   131  ILE131      0.0022
    119  CG2        9.2440    9.5490   23.0380 C.3   131  ILE131      0.0022
    120  CD1        8.8380   11.4950   25.3670 C.3   131  ILE131      0.0001
    121  N          3.3820   12.7690   27.0740 N.3   173  ASN173     -0.1225
    122  CA         3.7880   12.9300   25.7020 C.3   173  ASN173      0.1785
    123  C          2.8480   12.0800   24.8300 C.2   173  ASN173      0.2597
    124  O          1.6810   11.9370   25.1650 O.2   173  ASN173     -0.2718
    125  CB         5.2670   12.5890   25.5070 C.3   173  ASN173      0.1169
    126  CG         5.8840   13.3710   24.3470 C.2   173  ASN173      0.2627
    127  OD1        5.8110   12.9490   23.1850 O.2   173  ASN173     -0.2716
    128  ND2        6.5020   14.5070   24.6640 N.am  173  ASN173     -0.0877
    129  N          3.3320   11.5060   23.7370 N.am  174  TYR174     -0.1976
    130  CA         2.3910   10.8600   22.8080 C.3   174  TYR174      0.1639
    131  C          1.7260    9.5880   23.3290 C.2   174  TYR174      0.2290
    132  O          2.2190    8.9740   24.2960 O.2   174  TYR174     -0.2864
    133  CB         2.9740   10.7190   21.4000 C.3   174  TYR174      0.0560
    134  CG         4.0000    9.6370   21.2080 C.ar  174  TYR174     -0.0198
    135  CD1        3.6190    8.3140   21.0070 C.ar  174  TYR174     -0.0009
    136  CD2        5.3590    9.9430   21.1820 C.ar  174  TYR174     -0.0009
    137  CE1        4.5840    7.3110   20.7920 C.ar  174  TYR174      0.0417
    138  CE2        6.3160    8.9470   20.9570 C.ar  174  TYR174      0.0417
    139  CZ         5.9230    7.6450   20.7730 C.ar  174  TYR174      0.1957
    140  OH         6.8910    6.6710   20.5530 O.3   174  TYR174     -0.2866
    141  N          3.9780   -3.3400   18.0290 N.3   180  GLU180     -0.1245
    142  CA         5.4180   -3.4300   18.2560 C.3   180  GLU180      0.1567
    143  C          5.8960   -4.7970   17.8350 C.2   180  GLU180      0.2260
    144  O          5.2150   -5.8020   18.0880 O.2   180  GLU180     -0.2867
    145  CB         5.7880   -3.2300   19.7420 C.3   180  GLU180      0.0388
    146  CG         7.2950   -3.4300   20.0150 C.3   180  GLU180      0.1160
    147  CD         7.7790   -2.8020   21.3010 C.2   180  GLU180      0.3649
    148  OE1        6.9380   -2.3180   22.0920 O.co2 180  GLU180     -0.2457
    149  OE2        9.0250   -2.7840   21.5170 O.co2 180  GLU180     -0.2457
@<TRIPOS>BOND
     1     4     3    2
     2     3     2    1
     3     1     2    1
     4     2     5    1
     5    25    26    1
     6     6     5    1
     7     5     7    1
     8    27    28    2
     9    27    26    1
    10    21    22    2
    11    21    20    1
    12    26    29    1
    13    10    11    2
    14    10     9    1
    15    19    20    1
    16    20    23    1
    17     8     9    1
    18     9    12    1
    19    42    41    2
    20    50    49    2
    21    29    30    1
    22    39    40    1
    23    41    40    1
    24    31    30   ar
    25    31    33   ar
    26    49    48    1
    27    14    16   ar
    28    14    13   ar
    29    47    48    1
    30    30    32   ar
    31    16    18   ar
    32    23    24    1
    33    33    34   ar
    34    12    13    1
    35    32    34   ar
    36    32    35   ar
    37    13    15   ar
    38    40    43    1
    39    34    36   ar
    40    48    51    1
    41    35    37   ar
    42    18    17   ar
    43    36    38   ar
    44    15    17   ar
    45    37    38   ar
    46   143   144    2
    47   143   142    1
    48   141   142    1
    49   142   145    1
    50    43    44    1
    51    51    53    1
    52    51    52    1
    53    44    45    2
    54    44    46   am
    55   145   146    1
    56   146   147    1
    57   140   139    1
    58   139   137   ar
    59   139   138   ar
    60   137   135   ar
    61   105   104    1
    62   105   106    1
    63   138   136   ar
    64   135   134   ar
    65   104   101    1
    66   136   134   ar
    67   134   133    1
    68   147   149   ar
    69   147   148   ar
    70   133   130    1
    71    63    61   ar
    72    63    64   ar
    73    61    59   ar
    74   110   109    2
    75   106   100    1
    76   101   100    1
    77   101   102    1
    78   116   115    2
    79    65    64    1
    80   130   131    1
    81   130   129    1
    82    64    62   ar
    83    59    58    1
    84    59    60   ar
    85    58    55    1
    86   114   115    1
    87   114   117    1
    88   114   113    1
    89   119   117    1
    90   127   126    2
    91   109   113   am
    92   109   108    1
    93   102   107   am
    94   102   103    2
    95   107   108    1
    96   131   132    2
    97   117   118    1
    98    57    56    2
    99    62    60   ar
   100   129   123   am
   101    74    72   ar
   102    74    75   ar
   103   108   111    1
   104    54    55    1
   105    55    56    1
   106    72    71   ar
   107   126   128   am
   108   126   125    1
   109    88    86   ar
   110    99    97    1
   111    75    77   ar
   112    75    73   ar
   113    77    79   ar
   114   123   124    2
   115   123   122    1
   116   118   120    1
   117    71    73   ar
   118    71    70    1
   119   111   112    1
   120   125   122    1
   121   122   121    1
   122    73    76   ar
   123    79    78   ar
   124    86    87   ar
   125    86    85    1
   126    97    98    1
   127    97    96    2
   128    70    67    1
   129    66    67    1
   130    85    84    1
   131    96    95    1
   132    76    78   ar
   133    67    68    1
   134    69    68    2
   135    84    81    1
   136    95    94    1
   137    81    82    1
   138    81    80    1
   139    94    93    1
   140    93    90    1
   141    82    83    2
   142    90    91    1
   143    90    89    1
   144    91    92    2
