@<TRIPOS>MOLECULE
tmp/2vuoB00.pdb
 132 121 0 0 0
SMALL
GASTEIGER

@<TRIPOS>ATOM
      1  N        -25.0780  -10.4920   49.0360 N.3     9  SER9       -0.1217
      2  CA       -26.0460   -9.9890   48.0690 C.3     9  SER9        0.1889
      3  C        -26.1600  -11.0010   46.9410 C.2     9  SER9        0.2288
      4  O        -25.2200  -11.7530   46.6830 O.2     9  SER9       -0.2866
      5  CB       -25.6380   -8.6140   47.5360 C.3     9  SER9        0.2089
      6  OG       -24.2670   -8.5860   47.2010 O.3     9  SER9       -0.2183
      7  N        -27.3400  -11.9800   42.8560 N.3    11  PHE11      -0.1241
      8  CA       -27.6240  -11.5450   41.4960 C.3    11  PHE11       0.1605
      9  C        -28.0640  -12.7430   40.6680 C.2    11  PHE11       0.2264
     10  O        -27.5160  -13.8330   40.8040 O.2    11  PHE11      -0.2867
     11  CB       -26.3940  -10.8740   40.8830 C.3    11  PHE11       0.0534
     12  CG       -25.9460   -9.6620   41.6400 C.ar   11  PHE11      -0.0203
     13  CD1      -24.9900   -9.7670   42.6350 C.ar   11  PHE11      -0.0042
     14  CD2      -26.5180   -8.4250   41.3900 C.ar   11  PHE11      -0.0042
     15  CE1      -24.5900   -8.6550   43.3480 C.ar   11  PHE11      -0.0003
     16  CE2      -26.1230   -7.3060   42.1050 C.ar   11  PHE11      -0.0003
     17  CZ       -25.1580   -7.4230   43.0830 C.ar   11  PHE11      -0.0000
     18  N        -28.9990  -14.3020   36.7370 N.3    13  PHE13      -0.1228
     19  CA       -28.6380  -14.0920   35.3370 C.3    13  PHE13       0.1721
     20  C        -29.4010  -15.0270   34.4000 C.2    13  PHE13       0.2437
     21  O        -29.6440  -16.1850   34.7380 O.2    13  PHE13      -0.2733
     22  CB       -27.1360  -14.2860   35.1460 C.3    13  PHE13       0.0547
     23  CG       -26.2930  -13.3290   35.9480 C.ar   13  PHE13      -0.0202
     24  CD1      -25.8880  -12.1210   35.4050 C.ar   13  PHE13      -0.0042
     25  CD2      -25.9010  -13.6440   37.2390 C.ar   13  PHE13      -0.0042
     26  CE1      -25.1070  -11.2350   36.1380 C.ar   13  PHE13      -0.0003
     27  CE2      -25.1240  -12.7650   37.9830 C.ar   13  PHE13      -0.0003
     28  CZ       -24.7260  -11.5570   37.4300 C.ar   13  PHE13      -0.0000
     29  N        -29.7740  -14.5250   33.2110 N.am   14  PRO14      -0.2729
     30  CA       -30.5430  -15.3290   32.2570 C.3    14  PRO14       0.1401
     31  C        -29.6460  -16.3310   31.5440 C.2    14  PRO14       0.2269
     32  O        -28.4280  -16.2290   31.6270 O.2    14  PRO14      -0.2865
     33  CB       -31.0370  -14.2890   31.2500 C.3    14  PRO14       0.0296
     34  CG       -30.0060  -13.2070   31.2890 C.3    14  PRO14       0.0237
     35  CD       -29.4630  -13.1800   32.6910 C.3    14  PRO14       0.0939
     36  N        -27.9010  -18.0140   28.1470 N.3    16  LYS16      -0.1245
     37  CA       -27.3670  -17.4680   26.9020 C.3    16  LYS16       0.1561
     38  C        -28.3500  -17.7320   25.7760 C.2    16  LYS16       0.2260
     39  O        -28.8760  -18.8390   25.6600 O.2    16  LYS16      -0.2867
     40  CB       -26.0240  -18.1160   26.5640 C.3    16  LYS16       0.0271
     41  CG       -24.8750  -17.6580   27.4460 C.3    16  LYS16       0.0035
     42  CD       -24.7790  -16.1400   27.4570 C.3    16  LYS16       0.0206
     43  CE       -23.3760  -15.6720   27.8010 C.3    16  LYS16       0.1093
     44  NZ       -22.8400  -16.3530   29.0070 N.3    16  LYS16      -0.1314
     45  N        -27.9010  -20.8690   23.7540 N.3    19  ASP19      -0.1239
     46  CA       -28.2660  -22.0820   24.4870 C.3    19  ASP19       0.1674
     47  C        -29.7690  -22.3180   24.4550 C.2    19  ASP19       0.2266
     48  O        -30.2330  -23.4510   24.3110 O.2    19  ASP19      -0.2867
     49  CB       -27.8300  -21.9790   25.9490 C.3    19  ASP19       0.1410
     50  CG       -26.3310  -22.1060   26.1260 C.2    19  ASP19       0.3668
     51  OD1      -25.6490  -22.5990   25.2030 O.co2  19  ASP19      -0.2456
     52  OD2      -25.8410  -21.7100   27.2000 O.co2  19  ASP19      -0.2456
     53  N        -29.2370  -22.4790   31.0640 N.3    28  GLU28      -0.1245
     54  CA       -29.2720  -22.4960   32.5170 C.3    28  GLU28       0.1567
     55  C        -29.4920  -21.0960   33.0680 C.2    28  GLU28       0.2260
     56  O        -29.0700  -20.1060   32.4710 O.2    28  GLU28      -0.2867
     57  CB       -27.9720  -23.0800   33.0750 C.3    28  GLU28       0.0388
     58  CG       -26.7540  -22.2460   32.7380 C.3    28  GLU28       0.1160
     59  CD       -25.4390  -22.9760   32.9500 C.2    28  GLU28       0.3649
     60  OE1      -25.4480  -24.2230   33.0420 O.co2  28  GLU28      -0.2457
     61  OE2      -24.3920  -22.2970   33.0180 O.co2  28  GLU28      -0.2457
     62  N        -28.6910  -18.6920   36.3530 N.3    30  THR30      -0.1218
     63  CA       -27.6020  -18.6710   37.3130 C.3    30  THR30       0.1862
     64  C        -27.8680  -17.6850   38.4350 C.2    30  THR30       0.2287
     65  O        -28.2380  -16.5390   38.1900 O.2    30  THR30      -0.2866
     66  CB       -26.2700  -18.2760   36.6440 C.3    30  THR30       0.1770
     67  OG1      -26.0100  -19.1440   35.5350 O.3    30  THR30      -0.2211
     68  CG2      -25.1170  -18.3680   37.6440 C.3    30  THR30       0.0375
     69  N        -25.9580  -15.9520   41.6990 N.3    32  VAL32      -0.1245
     70  CA       -24.6490  -15.7180   42.2980 C.3    32  VAL32       0.1561
     71  C        -24.7750  -14.9540   43.6040 C.2    32  VAL32       0.2260
     72  O        -25.4270  -13.9120   43.6620 O.2    32  VAL32      -0.2867
     73  CB       -23.7230  -14.9410   41.3350 C.3    32  VAL32       0.0252
     74  CG1      -22.3530  -14.7170   41.9730 C.3    32  VAL32       0.0019
     75  CG2      -23.5870  -15.6910   40.0200 C.3    32  VAL32       0.0019
     76  N        -22.6200  -13.0450   46.5340 N.3    34  VAL34      -0.1231
     77  CA       -21.3140  -12.4710   46.8470 C.3    34  VAL34       0.1692
     78  C        -21.3020  -11.8940   48.2530 C.2    34  VAL34       0.2592
     79  O        -22.3460  -11.7590   48.8850 O.2    34  VAL34      -0.2718
     80  CB       -20.8880  -11.3840   45.8340 C.3    34  VAL34       0.0266
     81  CG1      -20.8050  -11.9640   44.4250 C.3    34  VAL34       0.0020
     82  CG2      -21.8430  -10.2040   45.8820 C.3    34  VAL34       0.0020
     83  N        -20.1110  -11.5710   48.7440 N.am   35  ASP35      -0.1974
     84  CA       -19.9530  -11.0600   50.1010 C.3    35  ASP35       0.1709
     85  C        -20.4170  -12.0580   51.1580 C.2    35  ASP35       0.2293
     86  O        -20.9920  -11.6780   52.1770 O.2    35  ASP35      -0.2864
     87  CB       -20.6790   -9.7230   50.2620 C.3    35  ASP35       0.1436
     88  CG       -19.9790   -8.5990   49.5340 C.2    35  ASP35       0.3671
     89  OD1      -18.7950   -8.7790   49.1840 O.co2  35  ASP35      -0.2456
     90  OD2      -20.6050   -7.5430   49.3110 O.co2  35  ASP35      -0.2456
     91  N        -12.5910  -15.1910   47.2010 N.3    65  GLN65      -0.1245
     92  CA       -12.3360  -13.9970   46.3990 C.3    65  GLN65       0.1566
     93  C        -11.1010  -13.2350   46.8840 C.2    65  GLN65       0.2260
     94  O        -10.7100  -13.3410   48.0460 O.2    65  GLN65      -0.2867
     95  CB       -13.5620  -13.0750   46.3980 C.3    65  GLN65       0.0367
     96  CG       -14.8220  -13.7420   45.8450 C.3    65  GLN65       0.0905
     97  CD       -14.6230  -14.2750   44.4370 C.2    65  GLN65       0.2608
     98  OE1      -14.4180  -13.5110   43.4940 O.2    65  GLN65      -0.2717
     99  NE2      -14.6850  -15.5950   44.2890 N.am   65  GLN65      -0.0878
    100  N        -10.9180  -10.2200   47.4830 N.3    67  ASN67      -0.1240
    101  CA       -11.3290   -9.2310   48.4780 C.3    67  ASN67       0.1653
    102  C        -11.7310   -9.8310   49.8320 C.2    67  ASN67       0.2266
    103  O        -12.4020   -9.1830   50.6310 O.2    67  ASN67      -0.2867
    104  CB       -12.3980   -8.2690   47.9240 C.3    67  ASN67       0.1155
    105  CG       -13.7140   -8.9550   47.5830 C.2    67  ASN67       0.2627
    106  OD1      -13.9170  -10.1320   47.8840 O.2    67  ASN67      -0.2716
    107  ND2      -14.6260   -8.1950   46.9580 N.am   67  ASN67      -0.0877
    108  N        -13.6830  -12.2990   50.5960 N.3    69  THR69      -0.1218
    109  CA       -15.0460  -12.7900   50.7530 C.3    69  THR69       0.1862
    110  C        -15.2060  -14.1090   50.0250 C.2    69  THR69       0.2287
    111  O        -14.2970  -14.5670   49.3370 O.2    69  THR69      -0.2866
    112  CB       -16.0780  -11.8040   50.1900 C.3    69  THR69       0.1770
    113  OG1      -15.8960  -11.6870   48.7730 O.3    69  THR69      -0.2211
    114  CG2      -15.9270  -10.4360   50.8440 C.3    69  THR69       0.0375
    115  N        -17.7130  -16.2940   47.2990 N.3    71  ARG71      -0.1245
    116  CA       -18.7190  -16.1700   46.2520 C.3    71  ARG71       0.1563
    117  C        -19.2920  -17.5650   46.0340 C.2    71  ARG71       0.2260
    118  O        -18.5450  -18.5370   45.9700 O.2    71  ARG71      -0.2867
    119  CB       -18.0580  -15.6390   44.9750 C.3    71  ARG71       0.0307
    120  CG       -18.9560  -15.4950   43.7430 C.3    71  ARG71       0.0489
    121  CD       -18.1320  -14.9550   42.5660 C.3    71  ARG71       0.2205
    122  NE       -18.9090  -14.7250   41.3460 N.pl3  71  ARG71      -0.0865
    123  CZ       -18.9350  -15.5560   40.3080 C.cat  71  ARG71       0.5346
    124  NH1      -19.6620  -15.2630   39.2390 N.pl3  71  ARG71       0.1354
    125  NH2      -18.2330  -16.6800   40.3340 N.pl3  71  ARG71       0.1354
    126  N        -22.0250  -19.9060   43.6460 N.3    73  VAL73      -0.1245
    127  CA       -22.7620  -19.9280   42.3930 C.3    73  VAL73       0.1561
    128  C        -23.6450  -21.1660   42.3080 C.2    73  VAL73       0.2260
    129  O        -23.1860  -22.2830   42.5410 O.2    73  VAL73      -0.2867
    130  CB       -21.8050  -19.9310   41.1830 C.3    73  VAL73       0.0252
    131  CG1      -22.5940  -19.9340   39.8770 C.3    73  VAL73       0.0019
    132  CG2      -20.8570  -18.7400   41.2470 C.3    73  VAL73       0.0019
@<TRIPOS>BOND
     1    45    46    1
     2    48    47    2
     3    47    46    1
     4    46    49    1
     5    51    50   ar
     6    39    38    2
     7    38    37    1
     8    49    50    1
     9    50    52   ar
    10    40    37    1
    11    40    41    1
    12    37    36    1
    13    41    42    1
    14    42    43    1
    15    43    44    1
    16    53    54    1
    17    33    34    1
    18    33    30    1
    19    34    35    1
    20    31    32    2
    21    31    30    1
    22    30    29    1
    23    56    55    2
    24    54    55    1
    25    54    57    1
    26    35    29    1
    27    58    59    1
    28    58    57    1
    29    59    61   ar
    30    59    60   ar
    31    29    20   am
    32    20    21    2
    33    20    19    1
    34    22    19    1
    35    22    23    1
    36    19    18    1
    37    24    23   ar
    38    24    26   ar
    39    67    66    1
    40    23    25   ar
    41    26    28   ar
    42    62    63    1
    43    66    63    1
    44    66    68    1
    45    25    27   ar
    46    63    64    1
    47    28    27   ar
    48    65    64    2
    49   124   123    1
    50   131   130    1
    51    75    73    1
    52   123   125    1
    53   123   122    2
    54     9    10    2
    55     9     8    1
    56    11     8    1
    57    11    12    1
    58   130   132    1
    59   130   127    1
    60    73    74    1
    61    73    70    1
    62   122   121    1
    63    14    12   ar
    64    14    16   ar
    65     8     7    1
    66    12    13   ar
    67    69    70    1
    68    16    17   ar
    69    70    71    1
    70   128   127    1
    71   128   129    2
    72   127   126    1
    73   121   120    1
    74    13    15   ar
    75    17    15   ar
    76    98    97    2
    77    71    72    2
    78   120   119    1
    79    99    97   am
    80    81    80    1
    81    97    96    1
    82   119   116    1
    83    80    82    1
    84    80    77    1
    85    96    95    1
    86   118   117    2
    87   117   116    1
    88   116   115    1
    89    95    92    1
    90    92    93    1
    91    92    91    1
    92    76    77    1
    93     4     3    2
    94    77    78    1
    95    93    94    2
    96     3     2    1
    97   107   105   am
    98     6     5    1
    99   100   101    1
   100     5     2    1
   101   105   106    2
   102   105   104    1
   103   104   101    1
   104     2     1    1
   105    78    83   am
   106    78    79    2
   107   101   102    1
   108    83    84    1
   109   113   112    1
   110    89    88   ar
   111    90    88   ar
   112   111   110    2
   113    88    87    1
   114   102   103    2
   115   110   109    1
   116    84    87    1
   117    84    85    1
   118   112   109    1
   119   112   114    1
   120   108   109    1
   121    85    86    2
