@<TRIPOS>MOLECULE
tmp/2vurB00.pdb
 178 173 0 0 0
SMALL
GASTEIGER

@<TRIPOS>ATOM
      1  N         32.5670   27.6590   28.6630 N.3   147  GLY147     -0.1225
      2  CA        32.5390   27.6820   27.2090 C.3   147  GLY147      0.1811
      3  C         33.8280   28.0240   26.4750 C.2   147  GLY147      0.2280
      4  O         33.7910   28.3100   25.2790 O.2   147  GLY147     -0.2866
      5  N         37.5990   27.3780   24.8170 N.3   149  TYR149     -0.1241
      6  CA        38.4410   26.3590   24.2220 C.3   149  TYR149      0.1605
      7  C         39.7040   26.2190   25.0390 C.2   149  TYR149      0.2264
      8  O         39.9440   27.0180   25.9470 O.2   149  TYR149     -0.2867
      9  CB        38.8260   26.7470   22.7970 C.3   149  TYR149      0.0534
     10  CG        37.6870   26.7380   21.8500 C.ar  149  TYR149     -0.0201
     11  CD1       36.8730   27.8650   21.7150 C.ar  149  TYR149     -0.0009
     12  CD2       37.4050   25.6030   21.0750 C.ar  149  TYR149     -0.0009
     13  CE1       35.7830   27.8710   20.8450 C.ar  149  TYR149      0.0417
     14  CE2       36.3250   25.6050   20.1710 C.ar  149  TYR149      0.0417
     15  CZ        35.5230   26.7460   20.0740 C.ar  149  TYR149      0.1957
     16  OH        34.4640   26.7810   19.2050 O.3   149  TYR149     -0.2866
     17  N         33.9850   21.5720   25.9600 N.3   178  LYS178     -0.1245
     18  CA        34.4680   21.0020   24.7030 C.3   178  LYS178      0.1561
     19  C         34.9610   19.5640   24.8620 C.2   178  LYS178      0.2260
     20  O         35.0100   18.8200   23.8780 O.2   178  LYS178     -0.2867
     21  CB        35.6010   21.8500   24.1120 C.3   178  LYS178      0.0271
     22  CG        35.3450   23.3310   24.0690 C.3   178  LYS178      0.0035
     23  CD        34.1030   23.6720   23.2820 C.3   178  LYS178      0.0206
     24  CE        33.8080   25.1490   23.3460 C.3   178  LYS178      0.1093
     25  NZ        33.0160   25.5740   22.1440 N.3   178  LYS178     -0.1314
     26  N         22.2330   25.0530   22.0970 N.3   255  TYR255     -0.1241
     27  CA        23.0570   25.9610   21.3190 C.3   255  TYR255      0.1605
     28  C         22.8430   25.7600   19.8390 C.2   255  TYR255      0.2264
     29  O         22.8140   24.6340   19.3630 O.2   255  TYR255     -0.2867
     30  CB        24.5490   25.6610   21.5630 C.3   255  TYR255      0.0534
     31  CG        25.0970   25.9120   22.9380 C.ar  255  TYR255     -0.0201
     32  CD1       26.4670   26.0910   23.1190 C.ar  255  TYR255     -0.0009
     33  CD2       24.2700   25.9610   24.0570 C.ar  255  TYR255     -0.0009
     34  CE1       27.0020   26.3230   24.3810 C.ar  255  TYR255      0.0417
     35  CE2       24.7800   26.1790   25.3260 C.ar  255  TYR255      0.0417
     36  CZ        26.1470   26.3590   25.4870 C.ar  255  TYR255      0.1957
     37  OH        26.6580   26.5870   26.7480 O.3   255  TYR255     -0.2866
     38  N         24.8800   27.8730   17.8940 N.3   257  ASP257     -0.1239
     39  CA        26.0240   28.6920   17.5310 C.3   257  ASP257      0.1674
     40  C         26.8610   28.1120   16.3950 C.2   257  ASP257      0.2266
     41  O         27.4330   28.8680   15.6130 O.2   257  ASP257     -0.2867
     42  CB        26.9020   28.9530   18.7620 C.3   257  ASP257      0.1410
     43  CG        27.5770   27.6920   19.2850 C.2   257  ASP257      0.3668
     44  OD1       26.8890   26.7250   19.7010 O.co2 257  ASP257     -0.2456
     45  OD2       28.8150   27.6740   19.2860 O.co2 257  ASP257     -0.2456
     46  N         21.2020   29.6180   22.5780 N.3   291  VAL291     -0.1245
     47  CA        22.1230   30.5150   21.8830 C.3   291  VAL291      0.1561
     48  C         21.7530   30.4130   20.3990 C.2   291  VAL291      0.2260
     49  O         21.8970   29.3330   19.8010 O.2   291  VAL291     -0.2867
     50  CB        23.6270   30.1230   22.1140 C.3   291  VAL291      0.0252
     51  CG1       24.5700   31.1100   21.4180 C.3   291  VAL291      0.0019
     52  CG2       23.9630   30.0730   23.6080 C.3   291  VAL291      0.0019
     53  N         24.4810   35.6590   17.6400 N.3   295  TYR295     -0.1241
     54  CA        24.4570   35.8420   19.1020 C.3   295  TYR295      0.1605
     55  C         25.2530   37.0550   19.6460 C.2   295  TYR295      0.2264
     56  O         25.4240   37.2040   20.8540 O.2   295  TYR295     -0.2867
     57  CB        24.9070   34.5610   19.8030 C.3   295  TYR295      0.0534
     58  CG        26.3140   34.1090   19.4420 C.ar  295  TYR295     -0.0201
     59  CD1       26.5190   33.0230   18.6010 C.ar  295  TYR295     -0.0009
     60  CD2       27.4310   34.7600   19.9480 C.ar  295  TYR295     -0.0009
     61  CE1       27.8100   32.5970   18.2620 C.ar  295  TYR295      0.0417
     62  CE2       28.7250   34.3320   19.6270 C.ar  295  TYR295      0.0417
     63  CZ        28.8970   33.2490   18.7870 C.ar  295  TYR295      0.1957
     64  OH        30.1540   32.8190   18.4470 O.3   295  TYR295     -0.2866
     65  N         20.3810   33.9440   24.7580 N.3   324  MET324     -0.1230
     66  CA        21.6930   34.4740   25.1080 C.3   324  MET324      0.1702
     67  C         22.2480   35.3320   23.9890 C.2   324  MET324      0.2592
     68  O         22.0940   35.0100   22.8130 O.2   324  MET324     -0.2718
     69  CB        22.6790   33.3500   25.4550 C.3   324  MET324      0.0401
     70  CG        22.1780   32.5020   26.5970 C.3   324  MET324      0.0596
     71  SD        23.4200   31.4950   27.4010 S.3   324  MET324     -0.1393
     72  CE        24.0180   32.6090   28.6690 C.3   324  MET324      0.0692
     73  N         22.8210   36.4620   24.3700 N.am  325  TRP325     -0.1962
     74  CA        23.7170   37.1980   23.4920 C.3   325  TRP325      0.1771
     75  C         24.9190   37.7130   24.2830 C.2   325  TRP325      0.2620
     76  O         24.8690   37.8070   25.5250 O.2   325  TRP325     -0.2715
     77  CB        22.9600   38.2640   22.6990 C.3   325  TRP325      0.0590
     78  CG        23.1670   39.7040   23.0240 C.ar  325  TRP325      0.0006
     79  CD1       23.6770   40.6570   22.1860 C.ar  325  TRP325      0.0946
     80  CD2       22.7820   40.3920   24.2240 C.ar  325  TRP325      0.0152
     81  NE1       23.6680   41.8860   22.8000 N.ar  325  TRP325     -0.2442
     82  CE2       23.1230   41.7570   24.0490 C.ar  325  TRP325      0.0810
     83  CE3       22.2000   39.9870   25.4380 C.ar  325  TRP325      0.0012
     84  CZ2       22.8930   42.7210   25.0340 C.ar  325  TRP325      0.0191
     85  CZ3       21.9850   40.9350   26.4110 C.ar  325  TRP325      0.0001
     86  CH2       22.3310   42.2950   26.2050 C.ar  325  TRP325      0.0015
     87  N         26.0010   38.0010   23.5650 N.am  326  THR326     -0.1951
     88  CA        27.2750   38.3650   24.1640 C.3   326  THR326      0.1897
     89  C         27.5320   39.8840   24.2410 C.2   326  THR326      0.2313
     90  O         28.5940   40.3030   24.6950 O.2   326  THR326     -0.2863
     91  CB        28.4420   37.7150   23.3840 C.3   326  THR326      0.1794
     92  OG1       28.4480   38.2210   22.0460 O.3   326  THR326     -0.2208
     93  CG2       28.2740   36.2130   23.3070 C.3   326  THR326      0.0378
     94  N         31.4010   39.6580   19.8720 N.3   330  VAL330     -0.1231
     95  CA        31.7200   38.4150   20.5840 C.3   330  VAL330      0.1692
     96  C         32.6050   38.6960   21.8280 C.2   330  VAL330      0.2591
     97  O         32.3510   38.1970   22.9190 O.2   330  VAL330     -0.2718
     98  CB        32.3880   37.3870   19.6240 C.3   330  VAL330      0.0266
     99  CG1       32.8160   36.1360   20.3800 C.3   330  VAL330      0.0020
    100  CG2       31.4070   36.9870   18.5310 C.3   330  VAL330      0.0020
    101  N         33.6650   39.4750   21.6230 N.am  331  VAL331     -0.1980
    102  CA        34.5270   40.0150   22.6930 C.3   331  VAL331      0.1595
    103  C         34.6320   41.5120   22.4300 C.2   331  VAL331      0.2287
    104  O         35.1600   41.9340   21.4020 O.2   331  VAL331     -0.2864
    105  CB        35.9250   39.3730   22.7020 C.3   331  VAL331      0.0276
    106  CG1       36.7780   39.9560   23.8320 C.3   331  VAL331      0.0022
    107  CG2       35.8060   37.8440   22.8650 C.3   331  VAL331      0.0022
    108  N         25.8610   36.1800   27.8570 N.3   354  TRP354     -0.1241
    109  CA        27.0620   35.3720   27.8190 C.3   354  TRP354      0.1605
    110  C         28.2170   36.3470   27.6010 C.2   354  TRP354      0.2264
    111  O         28.4320   36.8380   26.4940 O.2   354  TRP354     -0.2867
    112  CB        26.9670   34.3720   26.6610 C.3   354  TRP354      0.0550
    113  CG        28.1790   33.5070   26.3980 C.ar  354  TRP354      0.0003
    114  CD1       29.4910   33.9070   26.3630 C.ar  354  TRP354      0.0946
    115  CD2       28.1780   32.1060   26.0650 C.ar  354  TRP354      0.0152
    116  NE1       30.2970   32.8390   26.0590 N.ar  354  TRP354     -0.2442
    117  CE2       29.5210   31.7260   25.8580 C.ar  354  TRP354      0.0810
    118  CE3       27.1670   31.1460   25.9040 C.ar  354  TRP354      0.0012
    119  CZ2       29.8900   30.4150   25.5310 C.ar  354  TRP354      0.0191
    120  CZ3       27.5220   29.8500   25.5610 C.ar  354  TRP354      0.0001
    121  CH2       28.8760   29.4930   25.3720 C.ar  354  TRP354      0.0015
    122  N         32.0350   37.3190   27.3350 N.3   356  ASN356     -0.1240
    123  CA        33.3220   36.6840   27.0080 C.3   356  ASN356      0.1653
    124  C         34.5360   37.3520   27.6310 C.2   356  ASN356      0.2266
    125  O         35.4700   37.7880   26.9400 O.2   356  ASN356     -0.2867
    126  CB        33.4700   36.4750   25.4950 C.3   356  ASN356      0.1155
    127  CG        32.7050   35.2300   25.0110 C.2   356  ASN356      0.2627
    128  OD1       32.8190   34.1430   25.6110 O.2   356  ASN356     -0.2716
    129  ND2       31.9230   35.3860   23.9380 N.am  356  ASN356     -0.0877
    130  N         37.5820   34.8900   29.7460 N.3   359  VAL359     -0.1245
    131  CA        38.0780   33.9200   28.7530 C.3   359  VAL359      0.1561
    132  C         39.2670   34.4480   27.9370 C.2   359  VAL359      0.2260
    133  O         39.2350   35.5930   27.4370 O.2   359  VAL359     -0.2867
    134  CB        36.9460   33.3750   27.7980 C.3   359  VAL359      0.0252
    135  CG1       36.2740   34.4940   27.0120 C.3   359  VAL359      0.0019
    136  CG2       37.5020   32.3270   26.8710 C.3   359  VAL359      0.0019
    137  N         40.8800   32.2540   25.4810 N.3   361  ASP361     -0.1225
    138  CA        41.1870   31.1400   24.5740 C.3   361  ASP361      0.1805
    139  C         41.7080   31.6060   23.2120 C.2   361  ASP361      0.2597
    140  O         42.4080   30.8790   22.5160 O.2   361  ASP361     -0.2718
    141  CB        39.9880   30.1720   24.4230 C.3   361  ASP361      0.1424
    142  CG        38.7110   30.8600   23.9510 C.2   361  ASP361      0.3668
    143  OD1       38.7310   32.0420   23.5410 O.co2 361  ASP361     -0.2456
    144  OD2       37.6690   30.1910   23.9700 O.co2 361  ASP361     -0.2456
    145  N         41.3840   32.8390   22.8710 N.am  362  TYR362     -0.1976
    146  CA        41.7480   33.4470   21.5880 C.3   362  TYR362      0.1639
    147  C         43.0620   34.2530   21.6810 C.2   362  TYR362      0.2290
    148  O         43.5710   34.7560   20.6540 O.2   362  TYR362     -0.2864
    149  CB        40.6190   34.3830   21.1570 C.3   362  TYR362      0.0560
    150  CG        40.3590   35.4730   22.1630 C.ar  362  TYR362     -0.0198
    151  CD1       41.0620   36.6890   22.0900 C.ar  362  TYR362     -0.0009
    152  CD2       39.4330   35.2980   23.2130 C.ar  362  TYR362     -0.0009
    153  CE1       40.8530   37.7050   23.0130 C.ar  362  TYR362      0.0417
    154  CE2       39.2090   36.3400   24.1610 C.ar  362  TYR362      0.0417
    155  CZ        39.9450   37.5260   24.0490 C.ar  362  TYR362      0.1957
    156  OH        39.7750   38.5670   24.9290 O.3   362  TYR362     -0.2866
    157  N         32.1140   33.7640   30.6610 N.3   389  ASN389     -0.1240
    158  CA        32.9700   32.7480   30.1190 C.3   389  ASN389      0.1653
    159  C         34.3850   32.9870   30.6960 C.2   389  ASN389      0.2266
    160  O         35.0440   33.9710   30.3420 O.2   389  ASN389     -0.2867
    161  CB        32.9580   32.8700   28.6020 C.3   389  ASN389      0.1155
    162  CG        33.5070   31.6590   27.9100 C.2   389  ASN389      0.2627
    163  OD1       33.6510   30.5910   28.5060 O.2   389  ASN389     -0.2716
    164  ND2       33.8320   31.8160   26.6260 N.am  389  ASN389     -0.0877
    165  N         39.7900   41.4510   16.1860 N.3   450  TRP450     -0.1241
    166  CA        38.3400   41.4890   16.4470 C.3   450  TRP450      0.1605
    167  C         38.0050   41.3840   17.9280 C.2   450  TRP450      0.2264
    168  O         36.8830   41.6100   18.2930 O.2   450  TRP450     -0.2867
    169  CB        37.6380   40.3380   15.7010 C.3   450  TRP450      0.0550
    170  CG        38.1210   38.9870   16.1630 C.ar  450  TRP450      0.0003
    171  CD1       39.1910   38.2820   15.6780 C.ar  450  TRP450      0.0946
    172  CD2       37.5650   38.1970   17.2240 C.ar  450  TRP450      0.0152
    173  NE1       39.3270   37.1000   16.3670 N.ar  450  TRP450     -0.2442
    174  CE2       38.3380   37.0150   17.3120 C.ar  450  TRP450      0.0810
    175  CE3       36.4870   38.3790   18.1190 C.ar  450  TRP450      0.0012
    176  CZ2       38.0850   36.0160   18.2670 C.ar  450  TRP450      0.0191
    177  CZ3       36.2170   37.3730   19.0570 C.ar  450  TRP450      0.0001
    178  CH2       37.0100   36.2030   19.1120 C.ar  450  TRP450      0.0015
@<TRIPOS>BOND
     1    41    40    2
     2   171   170   ar
     3   171   173   ar
     4   169   170    1
     5   169   166    1
     6   170   172   ar
     7   165   166    1
     8   173   174   ar
     9    40    39    1
    10   166   167    1
    11   172   174   ar
    12   172   175   ar
    13   174   176   ar
    14    39    38    1
    15    39    42    1
    16    53    54    1
    17   167   168    2
    18   175   177   ar
    19    61    59   ar
    20    61    63   ar
    21   176   178   ar
    22    64    63    1
    23   100    98    1
    24    59    58   ar
    25    42    43    1
    26    63    62   ar
    27   177   178   ar
    28    54    55    1
    29    54    57    1
    30    16    15    1
    31    43    45   ar
    32    43    44   ar
    33    29    28    2
    34    58    57    1
    35    58    60   ar
    36    98    99    1
    37    98    95    1
    38    62    60   ar
    39    55    56    2
    40    49    48    2
    41    28    27    1
    42    94    95    1
    43    15    14   ar
    44    15    13   ar
    45    14    12   ar
    46    48    47    1
    47    95    96    1
    48   148   147    2
    49    13    11   ar
    50    12    10   ar
    51   149   146    1
    52   149   150    1
    53    27    30    1
    54    27    26    1
    55   104   103    2
    56    51    50    1
    57    30    31    1
    58   146   147    1
    59   146   145    1
    60   101    96   am
    61   101   102    1
    62    11    10   ar
    63    96    97    2
    64    10     9    1
    65    47    50    1
    66    47    46    1
    67    92    91    1
    68   151   150   ar
    69   151   153   ar
    70    50    52    1
    71    25    24    1
    72   150   152   ar
    73    79    81   ar
    74    79    78   ar
    75   103   102    1
    76   140   139    2
    77   102   105    1
    78    77    78    1
    79    77    74    1
    80   105   107    1
    81   105   106    1
    82     9     6    1
    83    81    82   ar
    84    68    67    2
    85   145   139   am
    86    31    32   ar
    87    31    33   ar
    88   153   155   ar
    89    78    80   ar
    90    32    34   ar
    91   139   138    1
    92   152   154   ar
    93    23    24    1
    94    23    22    1
    95    93    91    1
    96    91    88    1
    97    74    75    1
    98    74    73    1
    99   143   142   ar
   100    87    88    1
   101    87    75   am
   102    20    19    2
   103   129   127   am
   104   142   144   ar
   105   142   141    1
   106    67    73   am
   107    67    66    1
   108   155   154   ar
   109   155   156    1
   110    82    80   ar
   111    82    84   ar
   112    33    35   ar
   113    22    21    1
   114    21    18    1
   115    88    89    1
   116     6     5    1
   117     6     7    1
   118    80    83   ar
   119    89    90    2
   120    75    76    2
   121    34    36   ar
   122   141   138    1
   123   138   137    1
   124    18    19    1
   125    18    17    1
   126    65    66    1
   127   127   126    1
   128   127   128    2
   129    84    86   ar
   130     7     8    2
   131    66    69    1
   132     4     3    2
   133    35    36   ar
   134   121   119   ar
   135   121   120   ar
   136    83    85   ar
   137    69    70    1
   138    36    37    1
   139   126   123    1
   140   119   117   ar
   141   120   118   ar
   142   117   116   ar
   143   117   115   ar
   144   118   115   ar
   145   116   114   ar
   146   115   113   ar
   147    86    85   ar
   148   114   113   ar
   149   113   112    1
   150     3     2    1
   151   111   110    2
   152    70    71    1
   153   164   162   am
   154   112   109    1
   155   136   134    1
   156   125   124    2
   157   123   122    1
   158   123   124    1
   159   135   134    1
   160     2     1    1
   161    71    72    1
   162   133   132    2
   163   110   109    1
   164   134   131    1
   165   109   108    1
   166   162   163    2
   167   162   161    1
   168   132   131    1
   169   161   158    1
   170   131   130    1
   171   158   157    1
   172   158   159    1
   173   160   159    2
