@<TRIPOS>MOLECULE
tmp/2vutB00.pdb
 233 224 0 0 0
SMALL
GASTEIGER

@<TRIPOS>ATOM
      1  N          9.3190 -113.8240  166.4800 N.3    10  ASN10      -0.1240
      2  CA         9.0550 -113.1800  167.7780 C.3    10  ASN10       0.1653
      3  C          7.6560 -113.5920  168.2620 C.2    10  ASN10       0.2266
      4  O          6.8780 -112.7660  168.7340 O.2    10  ASN10      -0.2867
      5  CB         9.1180 -111.6570  167.6030 C.3    10  ASN10       0.1155
      6  CG         8.9620 -110.9040  168.9090 C.2    10  ASN10       0.2627
      7  OD1        8.5930 -109.7270  168.9160 O.2    10  ASN10      -0.2716
      8  ND2        9.2560 -111.5700  170.0200 N.am   10  ASN10      -0.0877
      9  N          6.3250 -114.8070  170.8470 N.3    12  THR12      -0.1203
     10  CA         5.8440 -114.4320  172.1650 C.3    12  THR12       0.1994
     11  C          5.5560 -112.9420  172.2620 C.2    12  THR12       0.2618
     12  O          4.9670 -112.4840  173.2360 O.2    12  THR12      -0.2717
     13  CB         6.8550 -114.8280  173.2520 C.3    12  THR12       0.1784
     14  OG1        8.0810 -114.1170  173.0500 O.3    12  THR12      -0.2211
     15  CG2        7.1310 -116.3250  173.1930 C.3    12  THR12       0.0376
     16  N          5.9780 -112.1850  171.2550 N.am   13  GLY13      -0.1942
     17  CA         5.7170 -110.7550  171.2500 C.3    13  GLY13       0.2014
     18  C          4.2140 -110.5330  171.2830 C.2    13  GLY13       0.2639
     19  O          3.4520 -111.3990  170.8460 O.2    13  GLY13      -0.2714
     20  N          3.7710 -109.3840  171.7800 N.am   14  ARG14      -0.1963
     21  CA         2.3340 -109.1400  171.8760 C.3    14  ARG14       0.1729
     22  C          1.6140 -109.0960  170.5390 C.2    14  ARG14       0.2616
     23  O          0.4670 -109.5320  170.4320 O.2    14  ARG14      -0.2715
     24  CB         2.0600 -107.8800  172.7120 C.3    14  ARG14       0.0348
     25  CG         2.1680 -108.1800  174.2160 C.3    14  ARG14       0.0492
     26  CD         2.0760 -106.9500  175.1080 C.3    14  ARG14       0.2205
     27  NE         3.2180 -106.0620  174.9330 N.pl3  14  ARG14      -0.0865
     28  CZ         3.4340 -104.9740  175.6640 C.cat  14  ARG14       0.5346
     29  NH1        2.5850 -104.6440  176.6270 N.pl3  14  ARG14       0.1354
     30  NH2        4.4910 -104.2080  175.4220 N.pl3  14  ARG14       0.1354
     31  N          2.2840 -108.5940  169.5120 N.am   15  GLN15      -0.1963
     32  CA         1.6740 -108.5480  168.1920 C.3    15  GLN15       0.1733
     33  C          1.5420 -109.9690  167.6370 C.2    15  GLN15       0.2616
     34  O          0.4360 -110.4270  167.3420 O.2    15  GLN15      -0.2715
     35  CB         2.5140 -107.6750  167.2500 C.3    15  GLN15       0.0408
     36  CG         2.3670 -106.1830  167.5260 C.3    15  GLN15       0.0908
     37  CD         3.1930 -105.3290  166.5920 C.2    15  GLN15       0.2608
     38  OE1        3.1330 -105.4900  165.3750 O.2    15  GLN15      -0.2717
     39  NE2        3.9650 -104.4050  167.1570 N.am   15  GLN15      -0.0878
     40  N          2.6660 -110.6740  167.5280 N.am   16  ALA16      -0.1977
     41  CA         2.6610 -112.0360  166.9970 C.3    16  ALA16       0.1597
     42  C          1.7180 -112.9650  167.7460 C.2    16  ALA16       0.2287
     43  O          0.9450 -113.7090  167.1370 O.2    16  ALA16      -0.2864
     44  CB         4.0660 -112.6100  167.0190 C.3    16  ALA16       0.0319
     45  N         12.4840 -116.9830  170.6870 N.3    35  HIS35      -0.1226
     46  CA        13.8400 -116.9540  171.1940 C.3    35  HIS35       0.1752
     47  C         14.0490 -118.0590  172.2320 C.2    35  HIS35       0.2596
     48  O         15.1320 -118.6310  172.3290 O.2    35  HIS35      -0.2718
     49  CB        14.1350 -115.5850  171.8070 C.3    35  HIS35       0.0759
     50  CG        15.5160 -115.4670  172.3670 C.ar   35  HIS35       0.0818
     51  ND1       15.8390 -115.8770  173.6420 N.ar   35  HIS35      -0.2268
     52  CD2       16.6700 -115.0330  171.8070 C.ar   35  HIS35       0.1154
     53  CE1       17.1330 -115.7000  173.8440 C.ar   35  HIS35       0.1986
     54  NE2       17.6600 -115.1890  172.7460 N.ar   35  HIS35      -0.2212
     55  N         13.0010 -118.3660  172.9910 N.am   36  SER36      -0.1952
     56  CA        13.0790 -119.3930  174.0240 C.3    36  SER36       0.1924
     57  C         11.7430 -120.1000  174.2330 C.2    36  SER36       0.2314
     58  O         10.6840 -119.4790  174.1640 O.2    36  SER36      -0.2863
     59  CB        13.5260 -118.7650  175.3450 C.3    36  SER36       0.2116
     60  OG        13.4820 -119.7100  176.3990 O.3    36  SER36      -0.2180
     61  N          3.8590 -117.3410  177.8200 N.3    41  ILE41      -0.1245
     62  CA         3.3780 -117.2190  176.4510 C.3    41  ILE41       0.1561
     63  C          3.8970 -118.3760  175.6040 C.2    41  ILE41       0.2260
     64  O          3.1560 -118.9650  174.8120 O.2    41  ILE41      -0.2867
     65  CB         3.8300 -115.8850  175.8260 C.3    41  ILE41       0.0252
     66  CG1        3.4390 -114.7310  176.7540 C.3    41  ILE41       0.0019
     67  CG2        3.1800 -115.6970  174.4560 C.3    41  ILE41       0.0019
     68  CD1        1.9570 -114.6840  177.0800 C.3    41  ILE41       0.0001
     69  N          7.2590 -108.9110  162.7180 N.3    78  ASN78      -0.1225
     70  CA         7.4660 -107.8370  163.6550 C.3    78  ASN78       0.1785
     71  C          8.6910 -108.2450  164.4550 C.2    78  ASN78       0.2598
     72  O          8.6330 -109.1530  165.2810 O.2    78  ASN78      -0.2718
     73  CB         6.2380 -107.6890  164.5490 C.3    78  ASN78       0.1169
     74  CG         6.3720 -106.5580  165.5300 C.2    78  ASN78       0.2627
     75  OD1        6.7420 -105.4410  165.1590 O.2    78  ASN78      -0.2716
     76  ND2        6.0640 -106.8330  166.7930 N.am   78  ASN78      -0.0877
     77  N          9.8160 -107.5970  164.1780 N.am   79  THR79      -0.1939
     78  CA        11.0480 -107.9100  164.8850 C.3    79  THR79       0.2028
     79  C         11.2070 -107.0130  166.1060 C.2    79  THR79       0.2643
     80  O         10.4450 -106.0640  166.2910 O.2    79  THR79      -0.2714
     81  CB        12.2790 -107.7700  163.9550 C.3    79  THR79       0.1808
     82  OG1       12.2660 -106.4900  163.3090 O.3    79  THR79      -0.2208
     83  CG2       12.2600 -108.8610  162.8990 C.3    79  THR79       0.0379
     84  N         12.1810 -107.3380  166.9510 N.am   80  THR80      -0.1936
     85  CA        12.4510 -106.5640  168.1590 C.3    80  THR80       0.2028
     86  C         13.9490 -106.3290  168.2380 C.2    80  THR80       0.2643
     87  O         14.7330 -107.2460  168.0100 O.2    80  THR80      -0.2714
     88  CB        12.0090 -107.3110  169.4290 C.3    80  THR80       0.1808
     89  OG1       12.8640 -108.4390  169.6470 O.3    80  THR80      -0.2208
     90  CG2       10.5830 -107.7920  169.2810 C.3    80  THR80       0.0379
     91  N         14.3360 -105.1000  168.5660 N.am   81  SER81      -0.1935
     92  CA        15.7430 -104.7320  168.6540 C.3    81  SER81       0.2055
     93  C         16.5360 -105.6280  169.6020 C.2    81  SER81       0.2643
     94  O         17.7670 -105.6280  169.5770 O.2    81  SER81      -0.2714
     95  CB        15.8720 -103.2690  169.0860 C.3    81  SER81       0.2130
     96  OG        17.2270 -102.8470  169.0720 O.3    81  SER81      -0.2179
     97  N         15.8340 -106.3940  170.4310 N.am   82  GLN82      -0.1963
     98  CA        16.4930 -107.2940  171.3780 C.3    82  GLN82       0.1733
     99  C         17.2200 -108.4480  170.6890 C.2    82  GLN82       0.2616
    100  O         18.2170 -108.9590  171.2010 O.2    82  GLN82      -0.2715
    101  CB        15.4750 -107.8770  172.3510 C.3    82  GLN82       0.0408
    102  CG        14.7760 -106.8620  173.2080 C.3    82  GLN82       0.0908
    103  CD        13.7600 -107.5110  174.1150 C.2    82  GLN82       0.2608
    104  OE1       14.0930 -108.3990  174.9020 O.2    82  GLN82      -0.2717
    105  NE2       12.5090 -107.0760  174.0100 N.am   82  GLN82      -0.0878
    106  N         16.7100 -108.8600  169.5330 N.am   83  ALA83      -0.1977
    107  CA        17.3020 -109.9600  168.7830 C.3    83  ALA83       0.1597
    108  C         18.5800 -109.5530  168.0530 C.2    83  ALA83       0.2287
    109  O         19.3850 -110.4030  167.6710 O.2    83  ALA83      -0.2864
    110  CB        16.2850 -110.5100  167.7850 C.3    83  ALA83       0.0319
    111  N         17.8890 -104.8540  163.6280 N.3    86  GLU86      -0.1245
    112  CA        16.6030 -104.9910  162.9800 C.3    86  GLU86       0.1567
    113  C         16.6650 -104.7730  161.4720 C.2    86  GLU86       0.2260
    114  O         15.6870 -105.0280  160.7700 O.2    86  GLU86      -0.2867
    115  CB        15.5870 -104.0390  163.6120 C.3    86  GLU86       0.0388
    116  CG        14.6930 -104.7150  164.6280 C.3    86  GLU86       0.1160
    117  CD        13.6550 -103.7840  165.2100 C.2    86  GLU86       0.3649
    118  OE1       14.0220 -102.8910  166.0070 O.co2  86  GLU86      -0.2457
    119  OE2       12.4660 -103.9460  164.8620 O.co2  86  GLU86      -0.2457
    120  N          5.4010 -105.2710  160.1550 N.3   109  SER109     -0.1217
    121  CA         5.0800 -104.2940  161.1930 C.3   109  SER109      0.1889
    122  C          6.1920 -103.2440  161.1770 C.2   109  SER109      0.2288
    123  O          7.3190 -103.5100  161.5890 O.2   109  SER109     -0.2866
    124  CB         5.0190 -104.9830  162.5550 C.3   109  SER109      0.2089
    125  OG         4.4000 -104.1540  163.5050 O.3   109  SER109     -0.2183
    126  N          7.6750  -99.0040  161.6880 N.3   111  MET111     -0.1245
    127  CA         7.5940  -97.8240  162.5480 C.3   111  MET111      0.1570
    128  C          8.2710  -96.6410  161.8700 C.2   111  MET111      0.2261
    129  O          9.2550  -96.8020  161.1390 O.2   111  MET111     -0.2867
    130  CB         8.2330  -98.0830  163.9140 C.3   111  MET111      0.0387
    131  CG         7.3400  -98.8710  164.8580 C.3   111  MET111      0.0595
    132  SD         5.6990  -98.1180  165.0290 S.3   111  MET111     -0.1393
    133  CE         6.0070  -96.9290  166.4010 C.3   111  MET111      0.0692
    134  N         14.4870  -97.8450  168.0880 N.3   125  MET125     -0.1230
    135  CA        13.7870  -99.1180  167.9300 C.3   125  MET125      0.1702
    136  C         12.6320  -98.9470  166.9530 C.2   125  MET125      0.2592
    137  O         11.8120  -99.8490  166.7740 O.2   125  MET125     -0.2718
    138  CB        13.2430  -99.6060  169.2710 C.3   125  MET125      0.0401
    139  CG        14.3090  -99.8480  170.3240 C.3   125  MET125      0.0596
    140  SD        13.6040 -100.5730  171.8120 S.3   125  MET125     -0.1393
    141  CE        14.3000 -102.2200  171.7700 C.3   125  MET125      0.0692
    142  N         12.5820  -97.7770  166.3260 N.am  126  TRP126     -0.1976
    143  CA        11.5380  -97.4610  165.3760 C.3   126  TRP126      0.1640
    144  C         12.1150  -97.2270  163.9850 C.2   126  TRP126      0.2290
    145  O         11.6920  -97.8550  163.0040 O.2   126  TRP126     -0.2864
    146  CB        10.7690  -96.2160  165.8480 C.3   126  TRP126      0.0576
    147  CG         9.9630  -96.4400  167.1090 C.ar  126  TRP126      0.0006
    148  CD1        9.8200  -97.6150  167.7980 C.ar  126  TRP126      0.0946
    149  CD2        9.1710  -95.4700  167.8100 C.ar  126  TRP126      0.0152
    150  NE1        8.9890  -97.4350  168.8780 N.ar  126  TRP126     -0.2442
    151  CE2        8.5770  -96.1290  168.9100 C.ar  126  TRP126      0.0810
    152  CE3        8.9050  -94.1080  167.6150 C.ar  126  TRP126      0.0012
    153  CZ2        7.7330  -95.4750  169.8090 C.ar  126  TRP126      0.0191
    154  CZ3        8.0620  -93.4560  168.5110 C.ar  126  TRP126      0.0001
    155  CH2        7.4880  -94.1420  169.5930 C.ar  126  TRP126      0.0015
    156  N         12.9310 -100.1510  161.3760 N.3   129  LYS129     -0.1245
    157  CA        11.7970 -100.7880  160.7240 C.3   129  LYS129      0.1561
    158  C         11.4580 -100.1550  159.3760 C.2   129  LYS129      0.2260
    159  O         11.1760 -100.8620  158.4060 O.2   129  LYS129     -0.2867
    160  CB        10.5720 -100.7640  161.6530 C.3   129  LYS129      0.0271
    161  CG        10.7550 -101.5480  162.9720 C.3   129  LYS129      0.0035
    162  CD         9.4300 -101.6030  163.7500 C.3   129  LYS129      0.0206
    163  CE         9.5640 -102.3220  165.0910 C.3   129  LYS129      0.1093
    164  NZ         9.9700 -103.7470  164.9700 N.3   129  LYS129     -0.1314
    165  N          1.7940  -99.8810  164.4340 N.3   148  ALA148     -0.1231
    166  CA         1.1420 -100.0670  165.7230 C.3   148  ALA148      0.1694
    167  C          1.1890  -98.8550  166.6310 C.2   148  ALA148      0.2593
    168  O          2.2160  -98.1900  166.7580 O.2   148  ALA148     -0.2718
    169  CB         1.7470 -101.2800  166.4450 C.3   148  ALA148      0.0304
    170  N          0.0550  -98.5810  167.2600 N.am  149  GLY149     -0.1942
    171  CA        -0.0290  -97.4730  168.1860 C.3   149  GLY149      0.2014
    172  C          0.4260  -97.9760  169.5370 C.2   149  GLY149      0.2639
    173  O          0.6660  -99.1710  169.7030 O.2   149  GLY149     -0.2714
    174  N          0.5530  -97.0680  170.4970 N.am  150  ILE150     -0.1963
    175  CA         0.9740  -97.4150  171.8490 C.3   150  ILE150      0.1727
    176  C         -0.0310  -98.4170  172.4120 C.2   150  ILE150      0.2616
    177  O         -1.2430  -98.1990  172.3090 O.2   150  ILE150     -0.2715
    178  CB         0.9990  -96.1630  172.7450 C.3   150  ILE150      0.0290
    179  CG1        1.5710  -94.9800  171.9620 C.3   150  ILE150      0.0022
    180  CG2        1.8470  -96.4280  173.9610 C.3   150  ILE150      0.0023
    181  CD1        1.5020  -93.6400  172.6830 C.3   150  ILE150      0.0001
    182  N          0.4740  -99.5050  173.0010 N.am  151  TYR151     -0.1974
    183  CA        -0.3810 -100.5570  173.5610 C.3   151  TYR151      0.1639
    184  C         -1.1080 -100.1470  174.8280 C.2   151  TYR151      0.2290
    185  O         -0.5360  -99.4900  175.6870 O.2   151  TYR151     -0.2864
    186  CB         0.4170 -101.8200  173.9080 C.3   151  TYR151      0.0560
    187  CG         1.2720 -102.4140  172.8130 C.ar  151  TYR151     -0.0198
    188  CD1        0.9570 -102.2420  171.4660 C.ar  151  TYR151     -0.0009
    189  CD2        2.3880 -103.1900  173.1350 C.ar  151  TYR151     -0.0009
    190  CE1        1.7370 -102.8260  170.4660 C.ar  151  TYR151      0.0417
    191  CE2        3.1670 -103.7780  172.1520 C.ar  151  TYR151      0.0417
    192  CZ         2.8400 -103.5940  170.8180 C.ar  151  TYR151      0.1957
    193  OH         3.6180 -104.1790  169.8460 O.3   151  TYR151     -0.2866
    194  N          0.5250 -101.5350  178.1480 N.3   154  ASN154     -0.1240
    195  CA         1.8960 -101.1650  178.4930 C.3   154  ASN154      0.1653
    196  C          1.7450 -100.7310  179.9520 C.2   154  ASN154      0.2266
    197  O          2.6600 -100.8450  180.7600 O.2   154  ASN154     -0.2867
    198  CB         2.3920  -99.9530  177.6910 C.3   154  ASN154      0.1155
    199  CG         2.9700 -100.3270  176.3420 C.2   154  ASN154      0.2627
    200  OD1        3.8490 -101.1800  176.2450 O.2   154  ASN154     -0.2716
    201  ND2        2.4880  -99.6730  175.2920 N.am  154  ASN154     -0.0877
    202  N          5.1530  -96.0490  181.2680 N.3   163  PHE163     -0.1241
    203  CA         3.7270  -96.3030  181.4120 C.3   163  PHE163      0.1605
    204  C          3.2680  -96.8530  182.7510 C.2   163  PHE163      0.2264
    205  O          2.4030  -97.7330  182.7980 O.2   163  PHE163     -0.2867
    206  CB         3.2740  -97.2550  180.3090 C.3   163  PHE163      0.0534
    207  CG         3.4890  -96.7260  178.9270 C.ar  163  PHE163     -0.0203
    208  CD1        2.5570  -95.8760  178.3420 C.ar  163  PHE163     -0.0042
    209  CD2        4.6150  -97.0910  178.2030 C.ar  163  PHE163     -0.0042
    210  CE1        2.7410  -95.4000  177.0530 C.ar  163  PHE163     -0.0003
    211  CE2        4.8120  -96.6200  176.9090 C.ar  163  PHE163     -0.0003
    212  CZ         3.8740  -95.7750  176.3320 C.ar  163  PHE163     -0.0000
    213  N         16.4340  -95.9060  173.8190 N.3   259  GLN259     -0.1245
    214  CA        15.1050  -95.8000  173.2240 C.3   259  GLN259      0.1566
    215  C         14.2820  -94.7510  173.9580 C.2   259  GLN259      0.2260
    216  O         13.7090  -93.8500  173.3450 O.2   259  GLN259     -0.2867
    217  CB        14.3800  -97.1450  173.3130 C.3   259  GLN259      0.0367
    218  CG        12.8970  -97.0740  172.9600 C.3   259  GLN259      0.0905
    219  CD        12.6820  -96.8390  171.4740 C.2   259  GLN259      0.2608
    220  OE1       13.6430  -96.6870  170.7190 O.2   259  GLN259     -0.2717
    221  NE2       11.4200  -96.8130  171.0460 N.am  259  GLN259     -0.0878
    222  N          3.3370  -88.9080  166.9280 N.3   274  TYR274     -0.1241
    223  CA         3.7240  -90.3090  167.0590 C.3   274  TYR274      0.1605
    224  C          3.8790  -90.8660  165.6430 C.2   274  TYR274      0.2264
    225  O          4.8730  -91.5160  165.3320 O.2   274  TYR274     -0.2867
    226  CB         2.6500  -91.0790  167.8240 C.3   274  TYR274      0.0534
    227  CG         3.0550  -92.4810  168.2260 C.ar  274  TYR274     -0.0201
    228  CD1        2.9460  -93.5410  167.3320 C.ar  274  TYR274     -0.0009
    229  CD2        3.5100  -92.7530  169.5180 C.ar  274  TYR274     -0.0009
    230  CE1        3.2690  -94.8420  167.7130 C.ar  274  TYR274      0.0417
    231  CE2        3.8390  -94.0460  169.9060 C.ar  274  TYR274      0.0417
    232  CZ         3.7130  -95.0880  169.0000 C.ar  274  TYR274      0.1957
    233  OH         4.0180  -96.3770  169.3800 O.3   274  TYR274     -0.2866
@<TRIPOS>BOND
     1   159   158    2
     2   158   157    1
     3   120   121    1
     4   157   156    1
     5   157   160    1
     6   114   113    2
     7   129   128    2
     8   122   121    1
     9   122   123    2
    10   121   124    1
    11   113   112    1
    12   160   161    1
    13   126   127    1
    14   128   127    1
    15   127   130    1
    16   124   125    1
    17    69    70    1
    18    83    81    1
    19   161   162    1
    20   112   115    1
    21   112   111    1
    22   145   144    2
    23    82    81    1
    24   115   116    1
    25    70    71    1
    26    70    73    1
    27   162   163    1
    28   130   131    1
    29    81    78    1
    30   144   143    1
    31    77    71   am
    32    77    78    1
    33   165   166    1
    34    71    72    2
    35    73    74    1
    36   116   117    1
    37   131   132    1
    38   119   117   ar
    39    78    79    1
    40   164   163    1
    41   132   133    1
    42    75    74    2
    43   117   118   ar
    44   225   224    2
    45    38    37    2
    46   143   146    1
    47   143   142    1
    48    74    76   am
    49   224   223    1
    50   166   169    1
    51   166   167    1
    52   146   147    1
    53    79    80    2
    54    79    84   am
    55   142   136   am
    56     1     2    1
    57    37    39   am
    58    37    36    1
    59   167   168    2
    60   167   170   am
    61   137   136    2
    62   222   223    1
    63    84    85    1
    64   136   135    1
    65    41    44    1
    66    41    40    1
    67    41    42    1
    68   223   226    1
    69   147   148   ar
    70   147   149   ar
    71    43    42    2
    72    35    36    1
    73    35    32    1
    74   170   171    1
    75   228   230   ar
    76   228   227   ar
    77    34    33    2
    78    40    33   am
    79     5     2    1
    80     5     6    1
    81   152   149   ar
    82   152   154   ar
    83    33    32    1
    84   109   108    2
    85   230   232   ar
    86     2     3    1
    87   110   107    1
    88   148   150   ar
    89   149   151   ar
    90   226   227    1
    91   135   134    1
    92   135   138    1
    93    87    86    2
    94   108   107    1
    95    85    86    1
    96    85    88    1
    97   171   172    1
    98    32    31    1
    99   227   229   ar
   100    86    91   am
   101     3     4    2
   102   154   155   ar
   103    91    92    1
   104    92    95    1
   105    92    93    1
   106   107   106    1
   107   150   151   ar
   108     6     7    2
   109     6     8   am
   110   151   153   ar
   111   232   233    1
   112   232   231   ar
   113    96    95    1
   114   138   139    1
   115    90    88    1
   116    88    89    1
   117    31    22   am
   118   229   231   ar
   119   106    99   am
   120   172   173    2
   121   172   174   am
   122    94    93    2
   123   155   153   ar
   124    93    97   am
   125   193   192    1
   126   139   140    1
   127    97    98    1
   128    23    22    2
   129   190   192   ar
   130   190   188   ar
   131   174   175    1
   132    22    21    1
   133    45    46    1
   134    99   100    2
   135    99    98    1
   136   220   219    2
   137   192   191   ar
   138    19    18    2
   139     9    10    1
   140   221   219   am
   141    46    49    1
   142    46    47    1
   143    17    16    1
   144    17    18    1
   145    16    11   am
   146    18    20   am
   147    98   101    1
   148   188   187   ar
   149   219   218    1
   150   141   140    1
   151    20    21    1
   152    52    50   ar
   153    52    54   ar
   154    49    50    1
   155   175   176    1
   156   175   178    1
   157    21    24    1
   158   179   181    1
   159   179   178    1
   160   191   189   ar
   161    10    11    1
   162    10    13    1
   163    47    48    2
   164    47    55   am
   165    11    12    2
   166   177   176    2
   167   101   102    1
   168    50    51   ar
   169   176   182   am
   170    24    25    1
   171   178   180    1
   172    54    53   ar
   173   187   189   ar
   174   187   186    1
   175   218   217    1
   176    55    56    1
   177   182   183    1
   178    14    13    1
   179    15    13    1
   180   102   103    1
   181   214   217    1
   182   214   213    1
   183   214   215    1
   184   216   215    2
   185   183   186    1
   186   183   184    1
   187    51    53   ar
   188   105   103   am
   189    56    57    1
   190    56    59    1
   191   103   104    2
   192    58    57    2
   193    25    26    1
   194    67    65    1
   195    64    63    2
   196   184   185    2
   197    27    26    1
   198    27    28    2
   199   201   199   am
   200    59    60    1
   201    30    28    1
   202    63    62    1
   203    28    29    1
   204    65    62    1
   205    65    66    1
   206   200   199    2
   207   212   211   ar
   208   212   210   ar
   209   199   198    1
   210    62    61    1
   211    66    68    1
   212   211   209   ar
   213   210   208   ar
   214   198   195    1
   215   194   195    1
   216   209   207   ar
   217   208   207   ar
   218   195   196    1
   219   207   206    1
   220   196   197    2
   221   206   203    1
   222   202   203    1
   223   203   204    1
   224   204   205    2
