@<TRIPOS>MOLECULE
tmp/2vuzA00.pdb
 124 118 0 0 0
SMALL
GASTEIGER

@<TRIPOS>ATOM
      1  N         -1.5050  -22.7400    1.3520 N.3    61  SER61      -0.1202
      2  CA        -1.9000  -23.0090    2.7280 C.3    61  SER61       0.2020
      3  C         -0.6740  -22.9500    3.6320 C.2    61  SER61       0.2618
      4  O          0.4680  -23.1570    3.1950 O.2    61  SER61      -0.2717
      5  CB        -2.5570  -24.3810    2.8590 C.3    61  SER61       0.2103
      6  OG        -1.5870  -25.3920    2.7020 O.3    61  SER61      -0.2182
      7  N         -0.9190  -22.6390    4.9030 N.am   62  PHE62      -0.1975
      8  CA         0.1320  -22.6790    5.9630 C.3    62  PHE62       0.1639
      9  C          1.2950  -21.7540    5.6340 C.2    62  PHE62       0.2290
     10  O          2.4830  -22.0760    5.7650 O.2    62  PHE62      -0.2864
     11  CB         0.5770  -24.1100    6.3000 C.3    62  PHE62       0.0560
     12  CG        -0.5690  -25.0430    6.5670 C.ar   62  PHE62      -0.0200
     13  CD1       -1.3290  -24.9100    7.7140 C.ar   62  PHE62      -0.0042
     14  CD2       -0.9110  -26.0240    5.6360 C.ar   62  PHE62      -0.0042
     15  CE1       -2.4080  -25.7440    7.9560 C.ar   62  PHE62      -0.0003
     16  CE2       -2.0080  -26.8460    5.8500 C.ar   62  PHE62      -0.0003
     17  CZ        -2.7560  -26.7030    7.0070 C.ar   62  PHE62      -0.0000
     18  N         -9.4220  -14.1370    5.7820 N.3    90  GLY90      -0.1225
     19  CA        -9.8660  -14.9010    4.6160 C.3    90  GLY90       0.1811
     20  C        -11.3250  -15.3010    4.7420 C.2    90  GLY90       0.2280
     21  O        -11.9110  -15.2230    5.8190 O.2    90  GLY90      -0.2866
     22  N        -14.7590  -16.8010    5.5020 N.3    91  ASN91      -0.1225
     23  CA       -15.1720  -17.7100    6.5760 C.3    91  ASN91       0.1785
     24  C        -14.1890  -17.8480    7.7510 C.2    91  ASN91       0.2597
     25  O        -14.3260  -18.7650    8.5680 O.2    91  ASN91      -0.2718
     26  CB       -15.4520  -19.0800    5.9800 C.3    91  ASN91       0.1169
     27  CG       -16.2880  -18.9790    4.7470 C.2    91  ASN91       0.2627
     28  OD1      -17.1540  -18.0970    4.6380 O.2    91  ASN91      -0.2716
     29  ND2      -16.0080  -19.8420    3.7700 N.am   91  ASN91      -0.0877
     30  N        -13.1990  -16.9570    7.8240 N.am   92  GLU92      -0.1979
     31  CA       -12.2900  -16.9000    8.9660 C.3    92  GLU92       0.1602
     32  C        -12.6140  -15.6150    9.7750 C.2    92  GLU92       0.2287
     33  O        -13.0960  -14.6360    9.2050 O.2    92  GLU92      -0.2864
     34  CB       -10.8310  -16.8340    8.4930 C.3    92  GLU92       0.0415
     35  CG       -10.4190  -17.9270    7.5340 C.3    92  GLU92       0.1163
     36  CD       -10.2890  -19.2780    8.1460 C.2    92  GLU92       0.3649
     37  OE1      -10.4250  -19.4240    9.3650 O.co2  92  GLU92      -0.2457
     38  OE2      -10.0310  -20.2620    7.4020 O.co2  92  GLU92      -0.2457
     39  N        -12.4300  -19.0470   12.2110 N.3    94  ASN94      -0.1240
     40  CA       -13.3260  -20.1920   12.4330 C.3    94  ASN94       0.1653
     41  C        -13.0030  -21.0370   13.6700 C.2    94  ASN94       0.2266
     42  O        -13.7620  -21.9290   14.0150 O.2    94  ASN94      -0.2867
     43  CB       -13.3910  -21.0690   11.1690 C.3    94  ASN94       0.1155
     44  CG       -12.0750  -21.7800   10.8520 C.2    94  ASN94       0.2627
     45  OD1      -11.0350  -21.5980   11.5230 O.2    94  ASN94      -0.2716
     46  ND2      -12.1230  -22.6460    9.8230 N.am   94  ASN94      -0.0877
     47  N        -10.9420  -23.5120   14.3260 N.3    96  SER96      -0.1217
     48  CA       -11.0230  -24.9540   14.0770 C.3    96  SER96       0.1889
     49  C        -10.2150  -25.8110   15.0500 C.2    96  SER96       0.2288
     50  O         -8.9900  -25.6970   15.1690 O.2    96  SER96      -0.2866
     51  CB       -10.6320  -25.2690   12.6230 C.3    96  SER96       0.2089
     52  OG       -10.6410  -26.6660   12.4220 O.3    96  SER96      -0.2183
     53  N         -7.2010  -22.1260   18.0590 N.3   100  GLU100     -0.1245
     54  CA        -6.5860  -21.3170   16.9940 C.3   100  GLU100      0.1567
     55  C         -6.3640  -19.8730   17.4510 C.2   100  GLU100      0.2260
     56  O         -7.1320  -19.0070   17.1460 O.2   100  GLU100     -0.2867
     57  CB        -7.4000  -21.3720   15.7230 C.3   100  GLU100      0.0388
     58  CG        -7.5400  -22.8100   15.1200 C.3   100  GLU100      0.1160
     59  CD        -7.8000  -22.7880   13.6250 C.2   100  GLU100      0.3649
     60  OE1       -8.7670  -22.1910   13.2150 O.co2 100  GLU100     -0.2457
     61  OE2       -7.0180  -23.3890   12.8910 O.co2 100  GLU100     -0.2457
     62  N         -2.8680  -17.5620    5.2960 N.3   106  ASN106     -0.1225
     63  CA        -3.3130  -18.7930    4.6550 C.3   106  ASN106      0.1785
     64  C         -3.8960  -18.4000    3.3100 C.2   106  ASN106      0.2597
     65  O         -4.8740  -17.6540    3.2450 O.2   106  ASN106     -0.2718
     66  CB        -4.3510  -19.5110    5.5360 C.3   106  ASN106      0.1169
     67  CG        -4.5440  -20.9800    5.1490 C.2   106  ASN106      0.2627
     68  OD1       -3.5890  -21.7350    5.0440 O.2   106  ASN106     -0.2716
     69  ND2       -5.8130  -21.3790    4.9690 N.am  106  ASN106     -0.0877
     70  N         -3.2850  -18.8520    2.1970 N.am  107  TRP107     -0.1976
     71  CA        -3.7360  -18.3830    0.8700 C.3   107  TRP107      0.1640
     72  C         -3.7690  -16.8520    0.7780 C.2   107  TRP107      0.2290
     73  O         -4.6690  -16.2780    0.2230 O.2   107  TRP107     -0.2864
     74  CB        -5.1160  -19.0100    0.4780 C.3   107  TRP107      0.0576
     75  CG        -5.0060  -20.5130    0.3810 C.ar  107  TRP107      0.0006
     76  CD1       -5.3560  -21.4140    1.3370 C.ar  107  TRP107      0.0946
     77  CD2       -4.4260  -21.2780   -0.6930 C.ar  107  TRP107      0.0152
     78  NE1       -5.0440  -22.6870    0.9380 N.ar  107  TRP107     -0.2442
     79  CE2       -4.4970  -22.6430   -0.3160 C.ar  107  TRP107      0.0810
     80  CE3       -3.8670  -20.9440   -1.9410 C.ar  107  TRP107      0.0012
     81  CZ2       -4.0060  -23.7060   -1.1450 C.ar  107  TRP107      0.0191
     82  CZ3       -3.4200  -21.9980   -2.7820 C.ar  107  TRP107      0.0001
     83  CH2       -3.4820  -23.3520   -2.3660 C.ar  107  TRP107      0.0015
     84  N         -4.2690  -14.5250    2.9010 N.3   109  SER109     -0.1217
     85  CA        -5.3030  -13.9010    3.7330 C.3   109  SER109      0.1889
     86  C         -5.0810  -14.2920    5.1660 C.2   109  SER109      0.2288
     87  O         -4.4980  -15.3240    5.4480 O.2   109  SER109     -0.2866
     88  CB        -6.6870  -14.4330    3.3010 C.3   109  SER109      0.2089
     89  OG        -7.1810  -13.5040    2.3840 O.3   109  SER109     -0.2183
     90  N         -5.5340  -15.9450    8.6320 N.3   111  ASN111     -0.1225
     91  CA        -6.2260  -17.0610    9.2610 C.3   111  ASN111      0.1785
     92  C         -5.8130  -17.2520   10.7020 C.2   111  ASN111      0.2597
     93  O         -4.6650  -16.9660   11.1110 O.2   111  ASN111     -0.2718
     94  CB        -5.9130  -18.3170    8.4290 C.3   111  ASN111      0.1169
     95  CG        -6.4030  -19.5790    9.0680 C.2   111  ASN111      0.2627
     96  OD1       -7.6010  -19.6820    9.3410 O.2   111  ASN111     -0.2716
     97  ND2       -5.5350  -20.5500    9.2700 N.am  111  ASN111     -0.0877
     98  N         -6.7420  -17.7600   11.5010 N.am  112  ASP112     -0.1960
     99  CA        -6.4020  -18.2600   12.8390 C.3   112  ASP112      0.1840
    100  C         -5.9390  -19.6940   12.8130 C.2   112  ASP112      0.2622
    101  O         -6.5770  -20.5590   12.1720 O.2   112  ASP112     -0.2715
    102  CB        -7.5460  -18.0690   13.8660 C.3   112  ASP112      0.1450
    103  CG        -8.8360  -18.7060   13.4460 C.2   112  ASP112      0.3671
    104  OD1       -9.0550  -19.0030   12.2360 O.co2 112  ASP112     -0.2456
    105  OD2       -9.6710  -18.9170   14.3590 O.co2 112  ASP112     -0.2456
    106  N         -4.7910  -19.9250   13.4520 N.am  113  LEU113     -0.1963
    107  CA        -4.1290  -21.1880   13.4930 C.3   113  LEU113      0.1728
    108  C         -3.5620  -21.5260   14.8780 C.2   113  LEU113      0.2616
    109  O         -3.1180  -20.6410   15.6330 O.2   113  LEU113     -0.2715
    110  CB        -2.9620  -21.1830   12.4760 C.3   113  LEU113      0.0311
    111  CG        -2.2370  -22.5180   12.2110 C.3   113  LEU113      0.0022
    112  CD1       -3.2160  -23.5420   11.6150 C.3   113  LEU113      0.0001
    113  CD2       -0.9950  -22.2280   11.2780 C.3   113  LEU113      0.0001
    114  N         -3.5310  -22.8180   15.2080 N.am  114  ARG114     -0.1977
    115  CA        -2.8450  -23.2690   16.4100 C.3   114  ARG114      0.1597
    116  C         -1.3750  -22.8020   16.5070 C.2   114  ARG114      0.2287
    117  O         -0.5680  -22.9490   15.5690 O.2   114  ARG114     -0.2864
    118  CB        -2.9280  -24.7950   16.5320 C.3   114  ARG114      0.0334
    119  CG        -2.3150  -25.5810   15.3920 C.3   114  ARG114      0.0492
    120  CD        -2.6380  -27.0860   15.5710 C.3   114  ARG114      0.2205
    121  NE        -2.1840  -27.9230   14.4710 N.pl3 114  ARG114     -0.0865
    122  CZ        -2.7340  -27.9990   13.2580 C.cat 114  ARG114      0.5346
    123  NH1       -3.7650  -27.2570   12.8660 N.pl3 114  ARG114      0.1354
    124  NH2       -2.1970  -28.8240   12.3790 N.pl3 114  ARG114      0.1354
@<TRIPOS>BOND
     1    82    83   ar
     2    82    80   ar
     3    83    81   ar
     4    80    77   ar
     5    81    79   ar
     6    77    79   ar
     7    77    75   ar
     8    79    78   ar
     9    73    72    2
    10    75    74    1
    11    75    76   ar
    12    74    71    1
    13    72    71    1
    14    71    70    1
    15    78    76   ar
    16     1     2    1
    17    70    64   am
    18    89    88    1
    19     6     5    1
    20     2     5    1
    21     2     3    1
    22    84    85    1
    23     4     3    2
    24    65    64    2
    25    88    85    1
    26    64    63    1
    27     3     7   am
    28    85    86    1
    29    29    27   am
    30    19    20    1
    31    19    18    1
    32    28    27    2
    33    63    62    1
    34    63    66    1
    35    20    21    2
    36    27    26    1
    37     7     8    1
    38    69    67   am
    39    68    67    2
    40    67    66    1
    41    86    87    2
    42    22    23    1
    43     9    10    2
    44     9     8    1
    45    14    16   ar
    46    14    12   ar
    47    16    17   ar
    48     8    11    1
    49    26    23    1
    50    11    12    1
    51    12    13   ar
    52    23    24    1
    53    17    15   ar
    54    38    36   ar
    55    35    36    1
    56    35    34    1
    57    13    15   ar
    58    24    30   am
    59    24    25    2
    60    30    31    1
    61    36    37   ar
    62    94    95    1
    63    94    91    1
    64    34    31    1
    65    90    91    1
    66    31    32    1
    67    95    97   am
    68    95    96    2
    69    33    32    2
    70    91    92    1
    71    46    44   am
    72    92    93    2
    73    92    98   am
    74    44    43    1
    75    44    45    2
    76    43    40    1
    77   113   111    1
    78    98    99    1
    79   112   111    1
    80   101   100    2
    81    39    40    1
    82   111   110    1
    83   104   103   ar
    84   124   122    1
    85    52    51    1
    86    40    41    1
    87   110   107    1
    88    51    48    1
    89   100    99    1
    90   100   106   am
    91    99   102    1
    92   123   122    1
    93    61    59   ar
    94    60    59   ar
    95   122   121    2
    96   103   102    1
    97   103   105   ar
    98   106   107    1
    99   107   108    1
   100    59    58    1
   101    41    42    2
   102    48    47    1
   103    48    49    1
   104   121   120    1
   105   108   114   am
   106   108   109    2
   107    49    50    2
   108    58    57    1
   109   114   115    1
   110   119   120    1
   111   119   118    1
   112   117   116    2
   113    57    54    1
   114   115   116    1
   115   115   118    1
   116    54    55    1
   117    54    53    1
   118    56    55    2
