@<TRIPOS>MOLECULE
tmp/2vv0B00.pdb
 153 142 0 0 0
SMALL
GASTEIGER

@<TRIPOS>ATOM
      1  N         31.6980  -21.6500   39.9840 N.3    21  LEU21      -0.1245
      2  CA        30.7420  -21.0430   40.9130 C.3    21  LEU21       0.1561
      3  C         29.4310  -20.6540   40.2340 C.2    21  LEU21       0.2260
      4  O         29.3920  -19.6980   39.4600 O.2    21  LEU21      -0.2867
      5  CB        31.3470  -19.7940   41.5480 C.3    21  LEU21       0.0270
      6  CG        31.2790  -19.6720   43.0670 C.3    21  LEU21       0.0019
      7  CD1       31.4270  -18.2110   43.4120 C.3    21  LEU21       0.0001
      8  CD2       29.9630  -20.2110   43.6170 C.3    21  LEU21       0.0001
      9  N         44.1770   -4.5600   44.1810 N.3    61  ILE61      -0.1245
     10  CA        42.8170   -5.0480   44.0180 C.3    61  ILE61       0.1561
     11  C         42.4030   -4.9300   42.5520 C.2    61  ILE61       0.2260
     12  O         41.7460   -5.8150   42.0080 O.2    61  ILE61      -0.2867
     13  CB        41.8080   -4.2610   44.9020 C.3    61  ILE61       0.0252
     14  CG1       42.0400   -4.5820   46.3750 C.3    61  ILE61       0.0019
     15  CG2       40.3800   -4.6390   44.5420 C.3    61  ILE61       0.0019
     16  CD1       41.0610   -3.9010   47.2970 C.3    61  ILE61       0.0001
     17  N         43.9280   -7.5320   40.5960 N.3    64  GLY64      -0.1210
     18  CA        43.4090   -8.8250   40.9940 C.3    64  GLY64       0.1956
     19  C         42.2200   -9.1480   40.1150 C.2    64  GLY64       0.2612
     20  O         42.0290  -10.2910   39.6990 O.2    64  GLY64      -0.2717
     21  N         41.4230   -8.1210   39.8320 N.am   65  CYS65      -0.1970
     22  CA        40.2490   -8.2650   38.9870 C.3    65  CYS65       0.1712
     23  C         40.6910   -8.6150   37.5860 C.2    65  CYS65       0.2296
     24  O         39.9510   -9.2350   36.8340 O.2    65  CYS65      -0.2864
     25  CB        39.4540   -6.9670   38.9540 C.3    65  CYS65       0.0983
     26  SG        38.7950   -6.5030   40.5440 S.3    65  CYS65      -0.0798
     27  N         43.4890  -10.4860   36.8290 N.3    67  PHE67      -0.1227
     28  CA        43.8150  -11.9000   36.8360 C.3    67  PHE67       0.1736
     29  C         42.5220  -12.7000   36.7820 C.2    67  PHE67       0.2595
     30  O         42.4010  -13.6460   36.0020 O.2    67  PHE67      -0.2718
     31  CB        44.6150  -12.2540   38.0930 C.3    67  PHE67       0.0547
     32  CG        44.9250  -13.7310   38.2330 C.ar   67  PHE67      -0.0202
     33  CD1       43.9890  -14.6100   38.7880 C.ar   67  PHE67      -0.0042
     34  CD2       46.1620  -14.2430   37.8250 C.ar   67  PHE67      -0.0042
     35  CE1       44.2810  -15.9780   38.9360 C.ar   67  PHE67      -0.0003
     36  CE2       46.4630  -15.6090   37.9700 C.ar   67  PHE67      -0.0003
     37  CZ        45.5200  -16.4780   38.5280 C.ar   67  PHE67      -0.0000
     38  N         41.5470  -12.3030   37.5960 N.am   68  ARG68      -0.1966
     39  CA        40.2590  -13.0010   37.6350 C.3    68  ARG68       0.1729
     40  C         39.5710  -12.9550   36.2700 C.2    68  ARG68       0.2616
     41  O         38.9560  -13.9240   35.8420 O.2    68  ARG68      -0.2715
     42  CB        39.3460  -12.3630   38.6810 C.3    68  ARG68       0.0348
     43  CG        38.3550  -13.3220   39.3550 C.3    68  ARG68       0.0492
     44  CD        37.4000  -14.0050   38.3840 C.3    68  ARG68       0.2205
     45  NE        37.5740  -15.4570   38.4020 N.pl3  68  ARG68      -0.0865
     46  CZ        36.8440  -16.3230   37.6990 C.cat  68  ARG68       0.5346
     47  NH1       35.8650  -15.9030   36.9070 N.pl3  68  ARG68       0.1354
     48  NH2       37.1080  -17.6210   37.7730 N.pl3  68  ARG68       0.1354
     49  N         39.6940  -11.8250   35.5860 N.am   69  SER69      -0.1950
     50  CA        39.0740  -11.6510   34.2850 C.3    69  SER69       0.1924
     51  C         39.6760  -12.4750   33.1570 C.2    69  SER69       0.2314
     52  O         38.9360  -13.0590   32.3680 O.2    69  SER69      -0.2863
     53  CB        39.0810  -10.1750   33.9040 C.3    69  SER69       0.2116
     54  OG        38.1600   -9.4610   34.7110 O.3    69  SER69      -0.2180
     55  N         38.3540  -15.6630   33.5100 N.3    72  ALA72      -0.1245
     56  CA        36.9580  -15.6800   33.1070 C.3    72  ALA72       0.1562
     57  C         36.7860  -15.8840   31.6150 C.2    72  ALA72       0.2260
     58  O         35.9600  -16.6940   31.1950 O.2    72  ALA72      -0.2867
     59  CB        36.2750  -14.3800   33.5360 C.3    72  ALA72       0.0290
     60  N         30.8580  -10.9970   31.5320 N.3   106  ILE106     -0.1245
     61  CA        31.5050  -10.9640   32.8430 C.3   106  ILE106      0.1561
     62  C         30.6420  -10.2210   33.8600 C.2   106  ILE106      0.2260
     63  O         30.4480  -10.7100   34.9720 O.2   106  ILE106     -0.2867
     64  CB        32.8990  -10.2870   32.7820 C.3   106  ILE106      0.0252
     65  CG1       33.8790  -11.2040   32.0510 C.3   106  ILE106      0.0019
     66  CG2       33.4040   -9.9450   34.2030 C.3   106  ILE106      0.0019
     67  CD1       35.2600  -10.5930   31.8720 C.3   106  ILE106      0.0001
     68  N         27.2960  -12.1580   34.7570 N.3   109  MET109     -0.1230
     69  CA        27.5140  -13.2360   35.7110 C.3   109  MET109      0.1702
     70  C         28.0330  -12.7380   37.0470 C.2   109  MET109      0.2592
     71  O         27.8390  -13.3930   38.0760 O.2   109  MET109     -0.2718
     72  CB        28.4800  -14.2590   35.1210 C.3   109  MET109      0.0401
     73  CG        27.9970  -14.8200   33.8070 C.3   109  MET109      0.0596
     74  SD        29.0230  -16.1410   33.2020 S.3   109  MET109     -0.1393
     75  CE        28.3350  -17.5080   34.2020 C.3   109  MET109      0.0692
     76  N         28.6970  -11.5840   37.0270 N.am  110  LEU110     -0.1980
     77  CA        29.2360  -10.9770   38.2480 C.3   110  LEU110      0.1596
     78  C         28.0580  -10.6650   39.1840 C.2   110  LEU110      0.2287
     79  O         28.1780  -10.7430   40.4080 O.2   110  LEU110     -0.2864
     80  CB        29.9720   -9.6690   37.9110 C.3   110  LEU110      0.0297
     81  CG        31.3230   -9.3310   38.5560 C.3   110  LEU110      0.0022
     82  CD1       31.3390   -7.8550   38.9450 C.3   110  LEU110      0.0001
     83  CD2       31.5720  -10.1970   39.7760 C.3   110  LEU110      0.0001
     84  N         27.1840  -13.0420   41.8550 N.3   113  LEU113     -0.1245
     85  CA        28.0050  -13.1480   43.0590 C.3   113  LEU113      0.1561
     86  C         27.9400  -11.8780   43.9150 C.2   113  LEU113      0.2260
     87  O         28.6640  -11.7400   44.9080 O.2   113  LEU113     -0.2867
     88  CB        29.4650  -13.4560   42.6790 C.3   113  LEU113      0.0270
     89  CG        29.7210  -14.3910   41.4760 C.3   113  LEU113      0.0019
     90  CD1       31.2150  -14.6460   41.3590 C.3   113  LEU113      0.0001
     91  CD2       28.9710  -15.7050   41.6210 C.3   113  LEU113      0.0001
     92  N         30.5670   -8.1990   47.2270 N.3   119  VAL119     -0.1231
     93  CA        30.7980   -9.1820   46.1820 C.3   119  VAL119      0.1692
     94  C         31.5800  -10.3970   46.6710 C.2   119  VAL119      0.2592
     95  O         32.5810  -10.2880   47.3890 O.2   119  VAL119     -0.2718
     96  CB        31.5250   -8.5290   44.9600 C.3   119  VAL119      0.0266
     97  CG1       32.8840   -7.9760   45.3870 C.3   119  VAL119      0.0020
     98  CG2       31.6770   -9.5380   43.8330 C.3   119  VAL119      0.0020
     99  N         31.0880  -11.5620   46.2780 N.am  120  LEU120     -0.1966
    100  CA        31.6930  -12.8290   46.6390 C.3   120  LEU120      0.1728
    101  C         32.9300  -12.9780   45.7660 C.2   120  LEU120      0.2616
    102  O         32.8280  -12.8940   44.5480 O.2   120  LEU120     -0.2715
    103  CB        30.6990  -13.9470   46.3390 C.3   120  LEU120      0.0311
    104  CG        30.6770  -15.1500   47.2670 C.3   120  LEU120      0.0022
    105  CD1       30.5210  -14.6670   48.7090 C.3   120  LEU120      0.0001
    106  CD2       29.5270  -16.0720   46.8750 C.3   120  LEU120      0.0001
    107  N         34.1010  -13.1610   46.3660 N.am  121  ILE121     -0.1963
    108  CA        35.3080  -13.3260   45.5560 C.3   121  ILE121      0.1727
    109  C         36.0940  -14.5730   45.9470 C.2   121  ILE121      0.2617
    110  O         35.7310  -15.2830   46.8850 O.2   121  ILE121     -0.2715
    111  CB        36.2660  -12.0670   45.6080 C.3   121  ILE121      0.0290
    112  CG1       37.2550  -12.1630   46.7800 C.3   121  ILE121      0.0022
    113  CG2       35.4450  -10.7870   45.6660 C.3   121  ILE121      0.0023
    114  CD1       36.6520  -12.0170   48.1530 C.3   121  ILE121      0.0001
    115  N         37.1590  -14.8450   45.2030 N.am  122  SER122     -0.1936
    116  CA        38.0090  -15.9980   45.4590 C.3   122  SER122      0.2055
    117  C         37.2080  -17.2970   45.4210 C.2   122  SER122      0.2642
    118  O         37.1050  -18.0220   46.4150 O.2   122  SER122     -0.2714
    119  CB        38.7010  -15.8430   46.8150 C.3   122  SER122      0.2130
    120  OG        39.6160  -16.9010   47.0470 O.3   122  SER122     -0.2179
    121  N         36.6300  -17.5790   44.2620 N.am  123  GLU123     -0.1976
    122  CA        35.8550  -18.7940   44.0790 C.3   123  GLU123      0.1602
    123  C         34.7640  -18.9240   45.1430 C.2   123  GLU123      0.2287
    124  O         34.2480  -20.0120   45.3940 O.2   123  GLU123     -0.2864
    125  CB        36.8040  -19.9950   44.1160 C.3   123  GLU123      0.0415
    126  CG        38.0380  -19.8000   43.2190 C.3   123  GLU123      0.1163
    127  CD        39.0960  -20.8900   43.3780 C.2   123  GLU123      0.3649
    128  OE1       39.3780  -21.2830   44.5280 O.co2 123  GLU123     -0.2457
    129  OE2       39.6620  -21.3400   42.3550 O.co2 123  GLU123     -0.2457
    130  N         34.1510   -9.3950   49.6020 N.3   128  MET128     -0.1245
    131  CA        34.5940   -8.0180   49.6990 C.3   128  MET128      0.1570
    132  C         33.3550   -7.1630   49.8870 C.2   128  MET128      0.2261
    133  O         32.4350   -7.2280   49.0790 O.2   128  MET128     -0.2867
    134  CB        35.3190   -7.5950   48.4220 C.3   128  MET128      0.0387
    135  CG        36.8160   -7.7360   48.4920 C.3   128  MET128      0.0595
    136  SD        37.6360   -6.1740   48.1290 S.3   128  MET128     -0.1393
    137  CE        39.1000   -6.7750   47.3290 C.3   128  MET128      0.0692
    138  N         35.1720   -1.1280   48.9080 N.3   133  LEU133     -0.1245
    139  CA        35.5430   -0.8320   47.5270 C.3   133  LEU133      0.1561
    140  C         35.3510    0.6450   47.1800 C.2   133  LEU133      0.2260
    141  O         36.1170    1.2090   46.3960 O.2   133  LEU133     -0.2867
    142  CB        34.7510   -1.7220   46.5560 C.3   133  LEU133      0.0270
    143  CG        35.1560   -3.2060   46.5730 C.3   133  LEU133      0.0019
    144  CD1       34.1320   -4.0330   45.8120 C.3   133  LEU133      0.0001
    145  CD2       36.5590   -3.3820   45.9860 C.3   133  LEU133      0.0001
    146  N         34.1560   -0.3490   40.7730 N.3   144  MET144     -0.1245
    147  CA        33.1170   -1.3540   40.9670 C.3   144  MET144      0.1570
    148  C         31.6830   -0.8940   41.2450 C.2   144  MET144      0.2261
    149  O         30.7400   -1.6540   41.0250 O.2   144  MET144     -0.2867
    150  CB        33.5540   -2.3060   42.0830 C.3   144  MET144      0.0387
    151  CG        33.0300   -3.7220   41.9310 C.3   144  MET144      0.0595
    152  SD        33.8810   -4.6640   40.6450 S.3   144  MET144     -0.1393
    153  CE        33.0140   -4.1410   39.2030 C.3   144  MET144      0.0692
@<TRIPOS>BOND
     1    58    57    2
     2    60    61    1
     3    57    56    1
     4    67    65    1
     5    65    64    1
     6    52    51    2
     7    64    61    1
     8    64    66    1
     9    61    62    1
    10    56    55    1
    11    56    59    1
    12    51    50    1
    13    74    73    1
    14    74    75    1
    15    73    72    1
    16    62    63    2
    17    53    50    1
    18    53    54    1
    19    50    49    1
    20    68    69    1
    21    72    69    1
    22    49    40   am
    23    69    70    1
    24    41    40    2
    25    30    29    2
    26    40    39    1
    27    29    28    1
    28    29    38   am
    29    27    28    1
    30    24    23    2
    31    28    31    1
    32    47    46    1
    33    76    70   am
    34    76    77    1
    35    70    71    2
    36    23    22    1
    37    38    39    1
    38    39    42    1
    39    46    48    1
    40    46    45    2
    41    34    36   ar
    42    34    32   ar
    43    80    77    1
    44    80    81    1
    45    36    37   ar
    46    31    32    1
    47    32    33   ar
    48    77    78    1
    49    44    45    1
    50    44    43    1
    51    37    35   ar
    52    81    82    1
    53    81    83    1
    54    42    43    1
    55    33    35   ar
    56    25    22    1
    57    25    26    1
    58    22    21    1
    59    78    79    2
    60   153   152    1
    61     4     3    2
    62    20    19    2
    63    21    19   am
    64     1     2    1
    65    19    18    1
    66     3     2    1
    67    17    18    1
    68   152   151    1
    69   146   147    1
    70     2     5    1
    71   147   148    1
    72   147   150    1
    73   149   148    2
    74    90    89    1
    75    89    91    1
    76    89    88    1
    77     5     6    1
    78    84    85    1
    79   151   150    1
    80    12    11    2
    81   129   127   ar
    82    11    10    1
    83    88    85    1
    84    85    86    1
    85     6     7    1
    86     6     8    1
    87   126   127    1
    88   126   125    1
    89   127   128   ar
    90    98    96    1
    91    86    87    2
    92    10     9    1
    93    10    13    1
    94   122   125    1
    95   122   121    1
    96   122   123    1
    97   121   117   am
    98    15    13    1
    99   102   101    2
   100    13    14    1
   101    96    97    1
   102    96    93    1
   103   123   124    2
   104   115   116    1
   105   115   109   am
   106   117   116    1
   107   117   118    2
   108   116   119    1
   109   108   111    1
   110   108   109    1
   111   108   107    1
   112   111   113    1
   113   111   112    1
   114   101   107   am
   115   101   100    1
   116   144   143    1
   117   109   110    2
   118   145   143    1
   119    93    94    1
   120    93    92    1
   121    99   100    1
   122    99    94   am
   123   103   100    1
   124   103   104    1
   125    14    16    1
   126   141   140    2
   127   142   143    1
   128   142   139    1
   129    94    95    2
   130   112   114    1
   131   119   120    1
   132   106   104    1
   133   140   139    1
   134   104   105    1
   135   137   136    1
   136   139   138    1
   137   136   135    1
   138   134   135    1
   139   134   131    1
   140   133   132    2
   141   130   131    1
   142   131   132    1
