@<TRIPOS>MOLECULE
tmp/2vv1A00.pdb
 204 195 0 0 0
SMALL
GASTEIGER

@<TRIPOS>ATOM
      1  N         22.1800   26.2090    9.8290 N.3    62  ILE62      -0.1231
      2  CA        21.4120   24.9750    9.7570 C.3    62  ILE62       0.1692
      3  C         21.3610   24.3440   11.1420 C.2    62  ILE62       0.2592
      4  O         20.4070   23.6400   11.4750 O.2    62  ILE62      -0.2718
      5  CB        22.0110   23.9620    8.7300 C.3    62  ILE62       0.0266
      6  CG1       23.3990   23.4950    9.1640 C.3    62  ILE62       0.0019
      7  CG2       22.0970   24.6060    7.3590 C.3    62  ILE62       0.0020
      8  CD1       23.3980   22.3980   10.2270 C.3    62  ILE62       0.0001
      9  N         22.3850   24.5990   11.9540 N.am   63  PHE63      -0.1976
     10  CA        22.4090   24.0480   13.3030 C.3    63  PHE63       0.1639
     11  C         21.2540   24.6350   14.1100 C.2    63  PHE63       0.2290
     12  O         20.6290   23.9410   14.9060 O.2    63  PHE63      -0.2864
     13  CB        23.7290   24.3560   14.0190 C.3    63  PHE63       0.0560
     14  CG        23.7930   23.7910   15.4170 C.ar   63  PHE63      -0.0200
     15  CD1       24.0700   22.4400   15.6230 C.ar   63  PHE63      -0.0042
     16  CD2       23.5000   24.5940   16.5220 C.ar   63  PHE63      -0.0042
     17  CE1       24.0520   21.8950   16.9040 C.ar   63  PHE63      -0.0003
     18  CE2       23.4780   24.0600   17.8060 C.ar   63  PHE63      -0.0003
     19  CZ        23.7540   22.7070   18.0010 C.ar   63  PHE63      -0.0000
     20  N         18.6460   25.5900   12.7860 N.3    65  GLY65      -0.1210
     21  CA        17.4980   24.9800   12.1470 C.3    65  GLY65       0.1956
     22  C         17.0920   23.7230   12.8900 C.2    65  GLY65       0.2612
     23  O         15.9270   23.5730   13.2610 O.2    65  GLY65      -0.2717
     24  N         18.0510   22.8240   13.1120 N.am   66  CYS66      -0.1956
     25  CA        17.7900   21.5780   13.8340 C.3    66  CYS66       0.1843
     26  C         17.2600   21.8830   15.2280 C.2    66  CYS66       0.2625
     27  O         16.3590   21.2070   15.7320 O.2    66  CYS66      -0.2714
     28  CB        19.0700   20.7530   13.9620 C.3    66  CYS66       0.0997
     29  SG        19.7220   20.1730   12.4010 S.3    66  CYS66      -0.0797
     30  N         17.8360   22.9120   15.8420 N.am   67  GLN67      -0.1977
     31  CA        17.4490   23.3360   17.1800 C.3    67  GLN67       0.1601
     32  C         15.9660   23.6740   17.2430 C.2    67  GLN67       0.2287
     33  O         15.2390   23.1470   18.0850 O.2    67  GLN67      -0.2864
     34  CB        18.2820   24.5410   17.6220 C.3    67  GLN67       0.0394
     35  CG        18.2570   24.7960   19.1200 C.3    67  GLN67       0.0908
     36  CD        19.6270   25.1290   19.6780 C.2    67  GLN67       0.2608
     37  OE1       20.0210   26.2940   19.7330 O.2    67  GLN67      -0.2717
     38  NE2       20.3610   24.1050   20.0950 N.am   67  GLN67      -0.0878
     39  N         13.6610   22.8590   15.1770 N.3    69  ARG69      -0.1231
     40  CA        12.9140   21.6530   14.8560 C.3    69  ARG69       0.1694
     41  C         12.8230   20.6980   16.0570 C.2    69  ARG69       0.2592
     42  O         11.7440   20.1810   16.3610 O.2    69  ARG69      -0.2718
     43  CB        13.5530   20.9520   13.6500 C.3    69  ARG69       0.0321
     44  CG        12.8970   19.6400   13.2600 C.3    69  ARG69       0.0489
     45  CD        11.3770   19.7760   13.1110 C.3    69  ARG69       0.2205
     46  NE        10.7410   18.4650   13.0700 N.pl3  69  ARG69      -0.0865
     47  CZ         9.5840   18.1690   13.6530 C.cat  69  ARG69       0.5346
     48  NH1        8.9090   19.0930   14.3280 N.pl3  69  ARG69       0.1354
     49  NH2        9.1150   16.9320   13.5840 N.pl3  69  ARG69       0.1354
     50  N         13.9500   20.4790   16.7270 N.am   70  SER70      -0.1952
     51  CA        13.9860   19.6140   17.9000 C.3    70  SER70       0.1924
     52  C         13.0150   20.1090   18.9660 C.2    70  SER70       0.2314
     53  O         12.3770   19.3140   19.6560 O.2    70  SER70      -0.2863
     54  CB        15.4030   19.5440   18.4710 C.3    70  SER70       0.2116
     55  OG        16.2980   18.9550   17.5430 O.3    70  SER70      -0.2180
     56  N         14.9100   12.5700   23.4670 N.3   104  HIS104     -0.1241
     57  CA        15.9180   12.4200   22.4340 C.3   104  HIS104      0.1621
     58  C         15.9700   11.0330   21.8310 C.2   104  HIS104      0.2264
     59  O         16.2270   10.8890   20.6380 O.2   104  HIS104     -0.2867
     60  CB        17.2890   12.8430   22.9530 C.3   104  HIS104      0.0745
     61  CG        17.4970   14.3200   22.8940 C.ar  104  HIS104      0.0817
     62  ND1       17.3680   15.1320   23.9990 N.ar  104  HIS104     -0.2268
     63  CD2       17.6830   15.1450   21.8390 C.ar  104  HIS104      0.1154
     64  CE1       17.4570   16.3950   23.6240 C.ar  104  HIS104      0.1986
     65  NE2       17.6470   16.4310   22.3190 N.ar  104  HIS104     -0.2212
     66  N         13.2510   11.0690   19.3830 N.3   107  ILE107     -0.1231
     67  CA        13.5210   11.9490   18.2550 C.3   107  ILE107      0.1692
     68  C         14.3640   11.2600   17.1870 C.2   107  ILE107      0.2592
     69  O         14.1310   11.4390   15.9890 O.2   107  ILE107     -0.2718
     70  CB        14.2250   13.2560   18.7390 C.3   107  ILE107      0.0266
     71  CG1       13.1660   14.2320   19.2690 C.3   107  ILE107      0.0019
     72  CG2       15.0620   13.8770   17.6090 C.3   107  ILE107      0.0020
     73  CD1       13.7390   15.5100   19.8780 C.3   107  ILE107      0.0001
     74  N         15.3280   10.4570   17.6250 N.am  108  TYR108     -0.1976
     75  CA        16.2000    9.7370   16.6980 C.3   108  TYR108      0.1639
     76  C         15.5250    8.4810   16.1340 C.2   108  TYR108      0.2290
     77  O         15.9070    8.0000   15.0730 O.2   108  TYR108     -0.2864
     78  CB        17.5350    9.3970   17.3910 C.3   108  TYR108      0.0560
     79  CG        18.2880   10.6380   17.8150 C.ar  108  TYR108     -0.0198
     80  CD1       18.4200   11.7210   16.9420 C.ar  108  TYR108     -0.0009
     81  CD2       18.8090   10.7690   19.1030 C.ar  108  TYR108     -0.0009
     82  CE1       19.0380   12.9050   17.3400 C.ar  108  TYR108      0.0417
     83  CE2       19.4370   11.9570   19.5140 C.ar  108  TYR108      0.0417
     84  CZ        19.5430   13.0200   18.6200 C.ar  108  TYR108      0.1957
     85  OH        20.1570   14.1960   18.9970 O.3   108  TYR108     -0.2866
     86  N         13.2750   10.1310   13.4870 N.3   111  LEU111     -0.1245
     87  CA        14.0610   10.8230   12.4760 C.3   111  LEU111      0.1561
     88  C         14.4580    9.8110   11.4100 C.2   111  LEU111      0.2260
     89  O         14.6140   10.1560   10.2420 O.2   111  LEU111     -0.2867
     90  CB        15.3150   11.4570   13.0960 C.3   111  LEU111      0.0270
     91  CG        16.2360   12.2330   12.1410 C.3   111  LEU111      0.0019
     92  CD1       15.5040   13.4620   11.5980 C.3   111  LEU111      0.0001
     93  CD2       17.4950   12.6440   12.8640 C.3   111  LEU111      0.0001
     94  N         18.1140   13.2360    4.2080 N.3   120  VAL120     -0.1231
     95  CA        16.9920   13.3920    5.1260 C.3   120  VAL120      0.1692
     96  C         16.0240   14.4890    4.7290 C.2   120  VAL120      0.2592
     97  O         16.4340   15.5690    4.3050 O.2   120  VAL120     -0.2718
     98  CB        17.5070   13.6990    6.5590 C.3   120  VAL120      0.0266
     99  CG1       18.3930   14.9570    6.5400 C.3   120  VAL120      0.0020
    100  CG2       16.3330   13.8800    7.5180 C.3   120  VAL120      0.0020
    101  N         14.7340   14.2040    4.8950 N.am  121  LEU121     -0.1966
    102  CA        13.6670   15.1500    4.5750 C.3   121  LEU121      0.1728
    103  C         13.6600   16.3080    5.5650 C.2   121  LEU121      0.2616
    104  O         14.0120   16.1230    6.7330 O.2   121  LEU121     -0.2715
    105  CB        12.3080   14.4470    4.6360 C.3   121  LEU121      0.0311
    106  CG        12.0150   13.3410    3.6190 C.3   121  LEU121      0.0022
    107  CD1       10.6710   12.6860    3.9340 C.3   121  LEU121      0.0001
    108  CD2       12.0100   13.9340    2.2230 C.3   121  LEU121      0.0001
    109  N         13.2630   17.4940    5.1010 N.am  122  ILE122     -0.1963
    110  CA        13.1880   18.6700    5.9690 C.3   122  ILE122      0.1727
    111  C         11.9750   19.5320    5.6150 C.2   122  ILE122      0.2616
    112  O         11.3290   19.3080    4.5910 O.2   122  ILE122     -0.2715
    113  CB        14.4790   19.5240    5.8970 C.3   122  ILE122      0.0290
    114  CG1       14.7260   20.0020    4.4690 C.3   122  ILE122      0.0022
    115  CG2       15.6770   18.7050    6.4010 C.3   122  ILE122      0.0023
    116  CD1       15.9830   20.8280    4.3250 C.3   122  ILE122      0.0001
    117  N         11.6660   20.5050    6.4700 N.am  123  SER123     -0.1950
    118  CA        10.5130   21.3880    6.2770 C.3   123  SER123      0.1924
    119  C          9.2600   20.5790    5.9680 C.2   123  SER123      0.2314
    120  O          8.6330   20.7600    4.9180 O.2   123  SER123     -0.2863
    121  CB        10.7570   22.3730    5.1350 C.3   123  SER123      0.2116
    122  OG        11.8970   23.1700    5.3820 O.3   123  SER123     -0.2180
    123  N         17.7610   17.2310    2.3520 N.3   129  MET129     -0.1245
    124  CA        19.1590   17.6130    2.4690 C.3   129  MET129      0.1570
    125  C         20.0060   16.3450    2.3950 C.2   129  MET129      0.2261
    126  O         19.7780   15.3780    3.1310 O.2   129  MET129     -0.2867
    127  CB        19.3820   18.3490    3.7920 C.3   129  MET129      0.0387
    128  CG        20.7110   19.0690    3.9110 C.3   129  MET129      0.0595
    129  SD        20.7230   20.2270    5.3080 S.3   129  MET129     -0.1393
    130  CE        20.2710   21.7660    4.4820 C.3   129  MET129      0.0692
    131  N         25.7960   17.4290    4.4400 N.3   134  LEU134     -0.1245
    132  CA        25.8360   17.5840    5.8930 C.3   134  LEU134      0.1561
    133  C         27.1880   17.1630    6.4540 C.2   134  LEU134      0.2260
    134  O         27.6730   17.7520    7.4180 O.2   134  LEU134     -0.2867
    135  CB        24.7370   16.7430    6.5520 C.3   134  LEU134      0.0270
    136  CG        23.3090   17.2820    6.5720 C.3   134  LEU134      0.0019
    137  CD1       22.3260   16.1300    6.7170 C.3   134  LEU134      0.0001
    138  CD2       23.1610   18.2710    7.7200 C.3   134  LEU134      0.0001
    139  N         27.8450   15.8540   12.9580 N.3   144  PHE144     -0.1227
    140  CA        26.7100   15.8360   13.8680 C.3   144  PHE144      0.1736
    141  C         25.6670   14.7970   13.4640 C.2   144  PHE144      0.2595
    142  O         25.0870   14.1280   14.3210 O.2   144  PHE144     -0.2718
    143  CB        26.0450   17.2160   13.9150 C.3   144  PHE144      0.0547
    144  CG        26.1390   17.8820   15.2520 C.ar  144  PHE144     -0.0202
    145  CD1       25.4690   17.3560   16.3520 C.ar  144  PHE144     -0.0042
    146  CD2       26.9400   19.0070   15.4290 C.ar  144  PHE144     -0.0042
    147  CE1       25.5970   17.9380   17.6130 C.ar  144  PHE144     -0.0003
    148  CE2       27.0770   19.5990   16.6890 C.ar  144  PHE144     -0.0003
    149  CZ        26.4050   19.0620   17.7830 C.ar  144  PHE144     -0.0000
    150  N         25.4480   14.6460   12.1590 N.am  145  MET145     -0.1979
    151  CA        24.4340   13.7250   11.6560 C.3   145  MET145      0.1605
    152  C         24.8230   12.3040   11.2540 C.2   145  MET145      0.2287
    153  O         23.9810   11.4050   11.2870 O.2   145  MET145     -0.2864
    154  CB        23.6880   14.3920   10.4980 C.3   145  MET145      0.0413
    155  CG        22.8580   15.6030   10.9240 C.3   145  MET145      0.0598
    156  SD        21.4470   15.1750   11.9990 S.3   145  MET145     -0.1393
    157  CE        20.2920   14.5540   10.7760 C.3   145  MET145      0.0692
    158  N         23.4770    9.3690   13.1320 N.3   148  LYS148     -0.1245
    159  CA        22.0240    9.2150   13.0030 C.3   148  LYS148      0.1561
    160  C         21.7100    8.3460   11.7860 C.2   148  LYS148      0.2260
    161  O         20.8790    7.4340   11.8550 O.2   148  LYS148     -0.2867
    162  CB        21.3460   10.5820   12.8350 C.3   148  LYS148      0.0271
    163  CG        21.9020   11.6830   13.7320 C.3   148  LYS148      0.0035
    164  CD        21.5900   11.4560   15.1910 C.3   148  LYS148      0.0206
    165  CE        22.6440   12.1130   16.0860 C.3   148  LYS148      0.1093
    166  NZ        22.7540   13.5910   15.9180 N.3   148  LYS148     -0.1314
    167  N         25.9430   12.8000   20.9180 N.3   230  HIS230     -0.1241
    168  CA        25.3410   14.0970   20.6290 C.3   230  HIS230      0.1621
    169  C         25.6090   15.0920   21.7530 C.2   230  HIS230      0.2264
    170  O         25.9240   16.2540   21.5050 O.2   230  HIS230     -0.2867
    171  CB        23.8280   13.9560   20.4330 C.3   230  HIS230      0.0745
    172  CG        23.1410   15.2450   20.1040 C.ar  230  HIS230      0.0817
    173  ND1       23.1030   15.7660   18.8300 N.ar  230  HIS230     -0.2268
    174  CD2       22.4910   16.1340   20.8930 C.ar  230  HIS230      0.1154
    175  CE1       22.4580   16.9180   18.8460 C.ar  230  HIS230      0.1986
    176  NE2       22.0760   17.1650   20.0860 N.ar  230  HIS230     -0.2212
    177  N         27.8940   18.3030   21.6690 N.3   234  LEU234     -0.1245
    178  CA        27.2120   19.5420   22.0010 C.3   234  LEU234      0.1561
    179  C         28.0620   20.3800   22.9560 C.2   234  LEU234      0.2260
    180  O         28.1090   21.6070   22.8420 O.2   234  LEU234     -0.2867
    181  CB        25.8500   19.2360   22.6230 C.3   234  LEU234      0.0270
    182  CG        24.7110   20.1380   22.1510 C.3   234  LEU234      0.0019
    183  CD1       24.5560   20.0230   20.6410 C.3   234  LEU234      0.0001
    184  CD2       23.4300   19.7360   22.8420 C.3   234  LEU234      0.0001
    185  N         15.7840   23.0090   25.3630 N.3   250  LEU250     -0.1245
    186  CA        16.7720   21.9700   25.0830 C.3   250  LEU250      0.1561
    187  C         17.9210   21.9890   26.0870 C.2   250  LEU250      0.2260
    188  O         18.5260   20.9550   26.3720 O.2   250  LEU250     -0.2867
    189  CB        17.3190   22.1280   23.6630 C.3   250  LEU250      0.0270
    190  CG        16.2970   21.9360   22.5360 C.3   250  LEU250      0.0019
    191  CD1       16.9530   22.2110   21.1970 C.3   250  LEU250      0.0001
    192  CD2       15.7400   20.5240   22.5810 C.3   250  LEU250      0.0001
    193  N         19.1940   18.7540   28.7410 N.3   254  TYR254     -0.1241
    194  CA        20.5360   18.1840   28.7560 C.3   254  TYR254      0.1605
    195  C         21.3330   18.1520   30.0590 C.2   254  TYR254      0.2264
    196  O         22.4460   17.6230   30.0740 O.2   254  TYR254     -0.2867
    197  CB        21.3790   18.8420   27.6640 C.3   254  TYR254      0.0534
    198  CG        21.0720   18.2960   26.2890 C.ar  254  TYR254     -0.0201
    199  CD1       20.8340   19.1470   25.2150 C.ar  254  TYR254     -0.0009
    200  CD2       20.9990   16.9190   26.0700 C.ar  254  TYR254     -0.0009
    201  CE1       20.5310   18.6430   23.9550 C.ar  254  TYR254      0.0417
    202  CE2       20.6980   16.4070   24.8180 C.ar  254  TYR254      0.0417
    203  CZ        20.4640   17.2730   23.7670 C.ar  254  TYR254      0.1957
    204  OH        20.1630   16.7690   22.5240 O.3   254  TYR254     -0.2866
@<TRIPOS>BOND
     1   108   106    1
     2   123   124    1
     3   125   124    1
     4   125   126    2
     5   124   127    1
     6   106   107    1
     7   106   105    1
     8   127   128    1
     9   128   129    1
    10    94    95    1
    11    97    96    2
    12   116   114    1
    13   131   132    1
    14   114   113    1
    15   130   129    1
    16   102   105    1
    17   102   101    1
    18   102   103    1
    19   112   111    2
    20    96   101   am
    21    96    95    1
    22   120   119    2
    23   109   103   am
    24   109   110    1
    25    95    98    1
    26   121   122    1
    27   121   118    1
    28   103   104    2
    29   111   110    1
    30   111   117   am
    31   132   133    1
    32   132   135    1
    33   113   110    1
    34   113   115    1
    35   119   118    1
    36   118   117    1
    37   133   134    2
    38    99    98    1
    39   135   136    1
    40    98   100    1
    41   136   137    1
    42   136   138    1
    43     7     5    1
    44     5     6    1
    45     5     2    1
    46     6     8    1
    47     2     1    1
    48     2     3    1
    49    89    88    2
    50   154   155    1
    51   154   151    1
    52   157   156    1
    53   155   156    1
    54     3     4    2
    55     3     9   am
    56   152   153    2
    57   152   151    1
    58    88    87    1
    59    92    91    1
    60   151   150    1
    61   160   161    2
    62   160   159    1
    63     9    10    1
    64    91    93    1
    65    91    90    1
    66    21    20    1
    67    21    22    1
    68   150   141   am
    69    29    28    1
    70    87    90    1
    71    87    86    1
    72   162   159    1
    73   162   163    1
    74    22    24   am
    75    22    23    2
    76   139   140    1
    77   159   158    1
    78    46    45    1
    79    46    47    2
    80    45    44    1
    81    24    25    1
    82    44    43    1
    83    10    13    1
    84    10    11    1
    85   141   140    1
    86   141   142    2
    87    49    47    1
    88    43    40    1
    89    47    48    1
    90   163   164    1
    91    25    28    1
    92    25    26    1
    93   140   143    1
    94   143   144    1
    95    13    14    1
    96    11    12    2
    97    40    39    1
    98    40    41    1
    99    77    76    2
   100   164   165    1
   101    26    27    2
   102    26    30   am
   103   144   146   ar
   104   144   145   ar
   105    14    15   ar
   106    14    16   ar
   107   146   148   ar
   108    15    17   ar
   109    30    31    1
   110   166   165    1
   111    69    68    2
   112    41    42    2
   113    41    50   am
   114    76    75    1
   115   145   147   ar
   116    16    18   ar
   117   148   149   ar
   118    75    78    1
   119    75    74    1
   120    50    51    1
   121    17    19   ar
   122    80    82   ar
   123    80    79   ar
   124    31    32    1
   125    31    34    1
   126    68    74   am
   127    68    67    1
   128    32    33    2
   129    82    84   ar
   130    78    79    1
   131    55    54    1
   132    72    70    1
   133   147   149   ar
   134    34    35    1
   135    18    19   ar
   136    79    81   ar
   137    51    54    1
   138    51    52    1
   139    67    70    1
   140    67    66    1
   141    84    85    1
   142    84    83   ar
   143    70    71    1
   144   173   175   ar
   145   173   172   ar
   146   175   176   ar
   147    52    53    2
   148    81    83   ar
   149    35    36    1
   150    71    73    1
   151    36    37    2
   152    36    38   am
   153   176   174   ar
   154   172   171    1
   155   172   174   ar
   156   171   168    1
   157   168   167    1
   158   168   169    1
   159    59    58    2
   160   183   182    1
   161   191   190    1
   162   170   169    2
   163   177   178    1
   164    58    57    1
   165    63    65   ar
   166    63    61   ar
   167   178   181    1
   168   178   179    1
   169   182   181    1
   170   182   184    1
   171    65    64   ar
   172    57    60    1
   173    57    56    1
   174   204   203    1
   175   190   192    1
   176   190   189    1
   177   180   179    2
   178    61    60    1
   179    61    62   ar
   180    64    62   ar
   181   189   186    1
   182   203   201   ar
   183   203   202   ar
   184   201   199   ar
   185   202   200   ar
   186   186   185    1
   187   186   187    1
   188   199   198   ar
   189   200   198   ar
   190   187   188    2
   191   198   197    1
   192   197   194    1
   193   193   194    1
   194   194   195    1
   195   195   196    2
