@<TRIPOS>MOLECULE
tmp/2vv2B01.pdb
 207 201 0 0 0
SMALL
GASTEIGER

@<TRIPOS>ATOM
      1  N         26.8440  -25.2000   30.9090 N.3    16  TYR16      -0.1241
      2  CA        27.0560  -24.0520   31.7710 C.3    16  TYR16       0.1605
      3  C         27.4950  -24.5400   33.1600 C.2    16  TYR16       0.2264
      4  O         28.4210  -24.0020   33.7550 O.2    16  TYR16      -0.2867
      5  CB        25.7470  -23.2560   31.8190 C.3    16  TYR16       0.0534
      6  CG        25.6310  -22.2350   32.9200 C.ar   16  TYR16      -0.0201
      7  CD1       25.1840  -22.5940   34.1870 C.ar   16  TYR16      -0.0009
      8  CD2       25.9430  -20.9050   32.6860 C.ar   16  TYR16      -0.0009
      9  CE1       25.0440  -21.6500   35.1960 C.ar   16  TYR16       0.0417
     10  CE2       25.8080  -19.9490   33.6770 C.ar   16  TYR16       0.0417
     11  CZ        25.3470  -20.3210   34.9290 C.ar   16  TYR16       0.1957
     12  OH        25.1180  -19.3550   35.8810 O.3    16  TYR16      -0.2866
     13  N         31.2920  -23.4990   34.5570 N.3    20  PHE20      -0.1228
     14  CA        31.3330  -22.6060   35.7040 C.3    20  PHE20       0.1721
     15  C         31.1850  -23.3280   37.0470 C.2    20  PHE20       0.2437
     16  O         30.1800  -23.9870   37.3200 O.2    20  PHE20      -0.2733
     17  CB        30.2510  -21.5190   35.5620 C.3    20  PHE20       0.0547
     18  CG        30.3220  -20.7530   34.2450 C.ar   20  PHE20      -0.0202
     19  CD1       31.3040  -19.7730   34.0240 C.ar   20  PHE20      -0.0042
     20  CD2       29.4550  -21.0600   33.1900 C.ar   20  PHE20      -0.0042
     21  CE1       31.4210  -19.1160   32.7560 C.ar   20  PHE20      -0.0003
     22  CE2       29.5620  -20.4120   31.9280 C.ar   20  PHE20      -0.0003
     23  CZ        30.5440  -19.4440   31.7120 C.ar   20  PHE20      -0.0000
     24  N         32.1980  -23.2080   37.9000 N.am   21  PRO21      -0.2718
     25  CA        32.1360  -23.8660   39.2060 C.3    21  PRO21       0.1535
     26  C         31.1730  -23.1930   40.1800 C.2    21  PRO21       0.2598
     27  O         30.3000  -23.8500   40.7410 O.2    21  PRO21      -0.2715
     28  CB        33.5740  -23.8130   39.6860 C.3    21  PRO21       0.0310
     29  CG        34.0760  -22.5110   39.0590 C.3    21  PRO21       0.0237
     30  CD        33.5160  -22.5840   37.6710 C.3    21  PRO21       0.0939
     31  N         31.3290  -21.8880   40.3900 N.am   22  LEU22      -0.1964
     32  CA        30.4300  -21.1840   41.3060 C.3    22  LEU22       0.1728
     33  C         29.1440  -20.7410   40.6280 C.2    22  LEU22       0.2617
     34  O         29.1110  -19.6930   39.9990 O.2    22  LEU22      -0.2715
     35  CB        31.0980  -19.9460   41.8940 C.3    22  LEU22       0.0311
     36  CG        31.1150  -19.8330   43.4160 C.3    22  LEU22       0.0022
     37  CD1       31.5170  -18.4190   43.7610 C.3    22  LEU22       0.0001
     38  CD2       29.7580  -20.1600   44.0270 C.3    22  LEU22       0.0001
     39  N         28.0920  -21.5330   40.7690 N.am   23  THR23      -0.1937
     40  CA        26.7940  -21.2170   40.1790 C.3    23  THR23       0.2028
     41  C         26.0360  -20.2110   41.0400 C.2    23  THR23       0.2642
     42  O         26.4880  -19.8550   42.1330 O.2    23  THR23      -0.2714
     43  CB        25.9340  -22.4680   40.0490 C.3    23  THR23       0.1808
     44  OG1       25.7990  -23.0900   41.3300 O.3    23  THR23      -0.2208
     45  CG2       26.5740  -23.4480   39.0910 C.3    23  THR23       0.0379
     46  N         24.8750  -19.7710   40.5570 N.am   24  LYS24      -0.1977
     47  CA        24.0750  -18.7960   41.2820 C.3    24  LYS24       0.1596
     48  C         23.4210  -19.4120   42.4940 C.2    24  LYS24       0.2287
     49  O         23.3210  -18.7800   43.5400 O.2    24  LYS24      -0.2864
     50  CB        23.0080  -18.1680   40.3800 C.3    24  LYS24       0.0298
     51  CG        22.2470  -17.0720   41.0680 C.3    24  LYS24       0.0038
     52  CD        21.2030  -16.4680   40.1800 C.3    24  LYS24       0.0206
     53  CE        20.6300  -15.2710   40.8810 C.3    24  LYS24       0.1093
     54  NZ        19.4910  -14.7160   40.1410 N.3    24  LYS24      -0.1314
     55  N         42.6480   -4.1870   42.4130 N.3    70  PHE70      -0.1241
     56  CA        42.3120   -4.0750   40.9950 C.3    70  PHE70       0.1605
     57  C         43.0720   -5.1250   40.1750 C.2    70  PHE70       0.2264
     58  O         42.4880   -5.8900   39.4000 O.2    70  PHE70      -0.2867
     59  CB        42.6470   -2.6570   40.5020 C.3    70  PHE70       0.0534
     60  CG        42.5730   -2.4910   39.0020 C.ar   70  PHE70      -0.0203
     61  CD1       41.3540   -2.5860   38.3340 C.ar   70  PHE70      -0.0042
     62  CD2       43.7320   -2.2980   38.2490 C.ar   70  PHE70      -0.0042
     63  CE1       41.2920   -2.4980   36.9350 C.ar   70  PHE70      -0.0003
     64  CE2       43.6820   -2.2080   36.8490 C.ar   70  PHE70      -0.0003
     65  CZ        42.4550   -2.3100   36.1930 C.ar   70  PHE70      -0.0000
     66  N         41.5080   -8.3650   40.3510 N.3    73  CYS73      -0.1221
     67  CA        40.2810   -8.5090   39.5810 C.3    73  CYS73       0.1808
     68  C         40.6390   -8.8580   38.1530 C.2    73  CYS73       0.2601
     69  O         39.9120   -9.5830   37.4760 O.2    73  CYS73      -0.2717
     70  CB        39.4750   -7.2180   39.6060 C.3    73  CYS73       0.0970
     71  SG        38.4410   -7.0570   41.0570 S.3    73  CYS73      -0.0800
     72  N         41.7590   -8.3140   37.6930 N.am   74  GLN74      -0.1979
     73  CA        42.2230   -8.5840   36.3480 C.3    74  GLN74       0.1601
     74  C         42.5410  -10.0610   36.2160 C.2    74  GLN74       0.2287
     75  O         42.1780  -10.6820   35.2220 O.2    74  GLN74      -0.2864
     76  CB        43.4670   -7.7710   36.0310 C.3    74  GLN74       0.0394
     77  CG        43.2230   -6.2890   35.9830 C.3    74  GLN74       0.0908
     78  CD        44.4680   -5.5330   35.6050 C.2    74  GLN74       0.2608
     79  OE1       45.5360   -5.7410   36.1860 O.2    74  GLN74      -0.2717
     80  NE2       44.3480   -4.6490   34.6260 N.am   74  GLN74      -0.0878
     81  N         41.2880  -12.5650   37.8540 N.3    76  ARG76      -0.1231
     82  CA        40.0310  -13.2960   37.8480 C.3    76  ARG76       0.1694
     83  C         39.2890  -13.0920   36.5350 C.2    76  ARG76       0.2592
     84  O         38.5800  -13.9750   36.0740 O.2    76  ARG76      -0.2718
     85  CB        39.1590  -12.8670   39.0250 C.3    76  ARG76       0.0321
     86  CG        38.2030  -13.9410   39.4930 C.3    76  ARG76       0.0489
     87  CD        37.9690  -14.9500   38.3930 C.3    76  ARG76       0.2205
     88  NE        37.2010  -16.0990   38.8500 N.pl3  76  ARG76      -0.0865
     89  CZ        36.3210  -16.7500   38.1000 C.cat  76  ARG76       0.5346
     90  NH1       36.0950  -16.3620   36.8580 N.pl3  76  ARG76       0.1354
     91  NH2       35.6650  -17.7860   38.5910 N.pl3  76  ARG76       0.1354
     92  N         39.4650  -11.9190   35.9420 N.am   77  SER77      -0.1952
     93  CA        38.8630  -11.5990   34.6520 C.3    77  SER77       0.1924
     94  C         39.4530  -12.5070   33.5880 C.2    77  SER77       0.2314
     95  O         38.7170  -13.1180   32.7920 O.2    77  SER77      -0.2863
     96  CB        39.1400  -10.1410   34.2960 C.3    77  SER77       0.2116
     97  OG        38.5210   -9.2920   35.2580 O.3    77  SER77      -0.2180
     98  N         38.0410  -15.9520   34.0130 N.3    80  ALA80      -0.1245
     99  CA        36.6650  -16.0270   33.5220 C.3    80  ALA80       0.1562
    100  C         36.5660  -16.2060   32.0130 C.2    80  ALA80       0.2260
    101  O         35.8230  -17.0550   31.5430 O.2    80  ALA80      -0.2867
    102  CB        35.9140  -14.7850   33.9350 C.3    80  ALA80       0.0290
    103  N         36.9320  -19.5640   30.8410 N.3    83  GLU83      -0.1231
    104  CA        35.7420  -20.3550   31.1510 C.3    83  GLU83       0.1699
    105  C         34.6250  -20.0220   30.1380 C.2    83  GLU83       0.2592
    106  O         33.9050  -20.9080   29.6740 O.2    83  GLU83      -0.2718
    107  CB        35.2590  -20.0520   32.5670 C.3    83  GLU83       0.0402
    108  CG        36.3680  -19.9890   33.6000 C.3    83  GLU83       0.1161
    109  CD        35.8200  -19.6820   34.9690 C.2    83  GLU83       0.3649
    110  OE1       34.8790  -18.8660   35.0280 O.co2  83  GLU83      -0.2457
    111  OE2       36.3150  -20.2350   35.9730 O.co2  83  GLU83      -0.2457
    112  N         34.5030  -18.7430   29.7870 N.am   84  ILE84      -0.1980
    113  CA        33.5040  -18.2780   28.8220 C.3    84  ILE84       0.1595
    114  C         33.8050  -18.7700   27.4010 C.2    84  ILE84       0.2287
    115  O         32.8900  -19.1050   26.6310 O.2    84  ILE84      -0.2864
    116  CB        33.4390  -16.7530   28.8540 C.3    84  ILE84       0.0276
    117  CG1       33.0010  -16.2910   30.2430 C.3    84  ILE84       0.0022
    118  CG2       32.3940  -16.2620   27.9120 C.3    84  ILE84       0.0022
    119  CD1       33.2320  -14.8280   30.5310 C.3    84  ILE84       0.0001
    120  N         30.8170  -11.2490   31.7990 N.3   114  ILE114     -0.1231
    121  CA        31.4690  -11.2070   33.1010 C.3   114  ILE114      0.1692
    122  C         30.6040  -10.4340   34.1150 C.2   114  ILE114      0.2592
    123  O         30.4090  -10.8970   35.2360 O.2   114  ILE114     -0.2718
    124  CB        32.8670  -10.5510   32.9840 C.3   114  ILE114      0.0266
    125  CG1       33.8520  -11.5530   32.3970 C.3   114  ILE114      0.0019
    126  CG2       33.3780  -10.0750   34.3520 C.3   114  ILE114      0.0020
    127  CD1       35.1990  -10.9690   32.1940 C.3   114  ILE114      0.0001
    128  N         30.0760   -9.2710   33.7170 N.am  115  TYR115     -0.1976
    129  CA        29.2270   -8.4770   34.6080 C.3   115  TYR115      0.1639
    130  C         27.8920   -9.1370   34.9240 C.2   115  TYR115      0.2290
    131  O         27.4270   -9.1050   36.0550 O.2   115  TYR115     -0.2864
    132  CB        28.9970   -7.0820   34.0210 C.3   115  TYR115      0.0560
    133  CG        30.2440   -6.2420   34.0340 C.ar  115  TYR115     -0.0198
    134  CD1       30.9190   -6.0080   35.2270 C.ar  115  TYR115     -0.0009
    135  CD2       30.7540   -5.6900   32.8650 C.ar  115  TYR115     -0.0009
    136  CE1       32.0750   -5.2370   35.2590 C.ar  115  TYR115      0.0417
    137  CE2       31.9110   -4.9160   32.8810 C.ar  115  TYR115      0.0417
    138  CZ        32.5620   -4.6920   34.0820 C.ar  115  TYR115      0.1957
    139  OH        33.6820   -3.9020   34.1120 O.3   115  TYR115     -0.2866
    140  N         27.3790  -12.1430   35.2180 N.3   117  MET117     -0.1230
    141  CA        27.6340  -13.1870   36.1870 C.3   117  MET117      0.1702
    142  C         28.1480  -12.6620   37.5010 C.2   117  MET117      0.2592
    143  O         28.0390  -13.3230   38.5330 O.2   117  MET117     -0.2718
    144  CB        28.5890  -14.2130   35.5870 C.3   117  MET117      0.0401
    145  CG        28.0880  -14.7650   34.2630 C.3   117  MET117      0.0596
    146  SD        28.8600  -16.3080   33.8000 S.3   117  MET117     -0.1393
    147  CE        27.7020  -17.3680   34.5520 C.3   117  MET117      0.0692
    148  N         28.6970  -11.4650   37.4580 N.am  118  LEU118     -0.1980
    149  CA        29.2030  -10.8330   38.6580 C.3   118  LEU118      0.1596
    150  C         28.0290  -10.5800   39.6020 C.2   118  LEU118      0.2287
    151  O         28.2050  -10.5150   40.8260 O.2   118  LEU118     -0.2864
    152  CB        29.8450   -9.4910   38.3090 C.3   118  LEU118      0.0297
    153  CG        31.2090   -9.2040   38.9380 C.3   118  LEU118      0.0022
    154  CD1       31.4480   -7.7240   39.0060 C.3   118  LEU118      0.0001
    155  CD2       31.2580   -9.7580   40.3300 C.3   118  LEU118      0.0001
    156  N         25.3290  -12.5230   39.9740 N.3   120  SER120     -0.1202
    157  CA        24.9230  -13.7270   40.6560 C.3   120  SER120      0.2020
    158  C         25.6080  -13.8010   42.0150 C.2   120  SER120      0.2618
    159  O         25.0110  -14.2430   43.0010 O.2   120  SER120     -0.2717
    160  CB        25.3090  -14.9600   39.8430 C.3   120  SER120      0.2103
    161  OG        24.7170  -14.9580   38.5650 O.3   120  SER120     -0.2182
    162  N         26.8590  -13.3800   42.0810 N.am  121  LEU121     -0.1979
    163  CA        27.5690  -13.4690   43.3510 C.3   121  LEU121      0.1596
    164  C         27.5020  -12.1930   44.1630 C.2   121  LEU121      0.2287
    165  O         28.2590  -12.0300   45.1100 O.2   121  LEU121     -0.2864
    166  CB        29.0340  -13.8350   43.1220 C.3   121  LEU121      0.0297
    167  CG        29.3820  -14.7080   41.9100 C.3   121  LEU121      0.0022
    168  CD1       30.8780  -14.7550   41.7890 C.3   121  LEU121      0.0001
    169  CD2       28.8300  -16.1100   42.0430 C.3   121  LEU121      0.0001
    170  N         34.9630    2.0140   40.9780 N.3   151  PHE151     -0.1227
    171  CA        35.0320    0.9800   39.9510 C.3   151  PHE151      0.1736
    172  C         33.9390   -0.0740   40.1190 C.2   151  PHE151      0.2595
    173  O         33.3990   -0.5810   39.1360 O.2   151  PHE151     -0.2718
    174  CB        36.4090    0.3120   39.9540 C.3   151  PHE151      0.0547
    175  CG        37.2920    0.7380   38.8160 C.ar  151  PHE151     -0.0202
    176  CD1       37.6200    2.0710   38.6380 C.ar  151  PHE151     -0.0042
    177  CD2       37.7930   -0.1950   37.9240 C.ar  151  PHE151     -0.0042
    178  CE1       38.4320    2.4660   37.5920 C.ar  151  PHE151     -0.0003
    179  CE2       38.6060    0.1940   36.8760 C.ar  151  PHE151     -0.0003
    180  CZ        38.9250    1.5260   36.7100 C.ar  151  PHE151     -0.0000
    181  N         33.6200   -0.4010   41.3670 N.am  152  MET152     -0.1979
    182  CA        32.6160   -1.4170   41.6610 C.3   152  MET152      0.1605
    183  C         31.2390   -0.8750   42.0320 C.2   152  MET152      0.2287
    184  O         30.2660   -1.6190   42.0100 O.2   152  MET152     -0.2864
    185  CB        33.1160   -2.3660   42.7540 C.3   152  MET152      0.0413
    186  CG        34.1960   -3.3450   42.2830 C.3   152  MET152      0.0598
    187  SD        33.7570   -4.3460   40.8320 S.3   152  MET152     -0.1393
    188  CE        32.7780   -5.5870   41.5850 C.3   152  MET152      0.0692
    189  N         28.6110   -1.2330   39.2630 N.3   155  LYS155     -0.1245
    190  CA        28.3000   -2.6500   39.0640 C.3   155  LYS155      0.1561
    191  C         27.2710   -3.1560   40.1090 C.2   155  LYS155      0.2260
    192  O         26.3980   -3.9670   39.7900 O.2   155  LYS155     -0.2867
    193  CB        29.5850   -3.4850   39.1420 C.3   155  LYS155      0.0271
    194  CG        30.4950   -3.4010   37.9060 C.3   155  LYS155      0.0035
    195  CD        30.8890   -1.9620   37.5490 C.3   155  LYS155      0.0206
    196  CE        31.6900   -1.8920   36.2410 C.3   155  LYS155      0.1093
    197  NZ        31.8490   -0.5020   35.6980 N.3   155  LYS155     -0.1314
    198  N         33.3580    1.3690   31.7140 N.3   237  HIS237     -0.1241
    199  CA        34.3990    0.6070   32.3600 C.3   237  HIS237      0.1621
    200  C         35.6760    0.8220   31.5640 C.2   237  HIS237      0.2264
    201  O         36.7520    1.0050   32.1310 O.2   237  HIS237     -0.2867
    202  CB        34.0230   -0.8740   32.3930 C.3   237  HIS237      0.0745
    203  CG        35.1300   -1.7600   32.8520 C.ar  237  HIS237      0.0817
    204  ND1       35.6760   -2.7400   32.0530 N.ar  237  HIS237     -0.2268
    205  CD2       35.8250   -1.7920   34.0140 C.ar  237  HIS237      0.1154
    206  CE1       36.6640   -3.3370   32.7000 C.ar  237  HIS237      0.1986
    207  NE2       36.7760   -2.7810   33.8940 N.ar  237  HIS237     -0.2212
@<TRIPOS>BOND
     1   115   114    2
     2   114   113    1
     3   118   116    1
     4   113   116    1
     5   113   112    1
     6   116   117    1
     7   106   105    2
     8   112   105   am
     9   105   104    1
    10   117   119    1
    11   103   104    1
    12     1     2    1
    13   104   107    1
    14   101   100    2
    15   200   201    2
    16   200   199    1
    17    23    22   ar
    18    23    21   ar
    19   198   199    1
    20     2     5    1
    21     2     3    1
    22   120   121    1
    23     5     6    1
    24    22    20   ar
    25   100    99    1
    26   204   206   ar
    27   204   203   ar
    28   127   125    1
    29   199   202    1
    30   202   203    1
    31   125   124    1
    32   107   108    1
    33     8     6   ar
    34     8    10   ar
    35   206   207   ar
    36    21    19   ar
    37    95    94    2
    38   203   205   ar
    39   135   137   ar
    40   135   133   ar
    41   137   138   ar
    42     6     7   ar
    43   124   121    1
    44   124   126    1
    45   121   122    1
    46     3     4    2
    47    20    18   ar
    48    99   102    1
    49    99    98    1
    50    94    93    1
    51   108   109    1
    52    10    11   ar
    53   128   122   am
    54   128   129    1
    55   146   145    1
    56   146   147    1
    57   207   205   ar
    58   132   133    1
    59   132   129    1
    60    19    18   ar
    61   133   134   ar
    62   138   139    1
    63   138   136   ar
    64   122   123    2
    65     7     9   ar
    66    18    17    1
    67   145   144    1
    68    96    93    1
    69    96    97    1
    70    13    14    1
    71   129   130    1
    72    80    78   am
    73    93    92    1
    74   130   131    2
    75    11     9   ar
    76    11    12    1
    77   109   110   ar
    78   109   111   ar
    79   140   141    1
    80    75    74    2
    81   134   136   ar
    82    17    14    1
    83   144   141    1
    84    78    77    1
    85    78    79    2
    86   197   196    1
    87    14    15    1
    88    92    83   am
    89    77    76    1
    90    76    73    1
    91    84    83    2
    92   141   142    1
    93    65    64   ar
    94    65    63   ar
    95    74    73    1
    96   196   195    1
    97    73    72    1
    98    83    82    1
    99   180   179   ar
   100   180   178   ar
   101    64    62   ar
   102    90    89    1
   103   179   177   ar
   104    63    61   ar
   105    15    16    2
   106    15    24   am
   107   148   142   am
   108   148   149    1
   109    69    68    2
   110   142   143    2
   111   195   194    1
   112   178   176   ar
   113    30    24    1
   114    30    29    1
   115    72    68   am
   116    82    81    1
   117    82    85    1
   118    24    25    1
   119   194   193    1
   120   177   175   ar
   121    89    91    1
   122    89    88    2
   123    68    67    1
   124    62    60   ar
   125   152   149    1
   126   152   153    1
   127    61    60   ar
   128    87    88    1
   129    87    86    1
   130   161   160    1
   131   176   175   ar
   132   149   150    1
   133   175   174    1
   134   153   154    1
   135   153   155    1
   136    60    59    1
   137    85    86    1
   138    29    28    1
   139   190   193    1
   140   190   189    1
   141   190   191    1
   142    45    43    1
   143   173   172    2
   144    25    28    1
   145    25    26    1
   146    58    57    2
   147    67    70    1
   148    67    66    1
   149   150   151    2
   150    70    71    1
   151   192   191    2
   152   160   157    1
   153   171   174    1
   154   171   172    1
   155   171   170    1
   156   156   157    1
   157    34    33    2
   158    43    40    1
   159    43    44    1
   160   172   181   am
   161    54    53    1
   162    57    56    1
   163    40    39    1
   164    40    41    1
   165    52    53    1
   166    52    51    1
   167    26    31   am
   168    26    27    2
   169    50    51    1
   170    50    47    1
   171    31    32    1
   172    59    56    1
   173    46    41   am
   174    46    47    1
   175    33    39   am
   176    33    32    1
   177   157   158    1
   178   187   188    1
   179   187   186    1
   180    56    55    1
   181    41    42    2
   182    47    48    1
   183    32    35    1
   184   181   182    1
   185   182   183    1
   186   182   185    1
   187   168   167    1
   188    35    36    1
   189   167   169    1
   190   167   166    1
   191   184   183    2
   192   158   162   am
   193   158   159    2
   194   162   163    1
   195   186   185    1
   196    48    49    2
   197   166   163    1
   198   163   164    1
   199    36    37    1
   200    36    38    1
   201   164   165    2
