@<TRIPOS>MOLECULE
tmp/2vv2B00.pdb
 156 146 0 0 0
SMALL
GASTEIGER

@<TRIPOS>ATOM
      1  N         31.3290  -21.8880   40.3900 N.3    22  LEU22      -0.1245
      2  CA        30.4300  -21.1840   41.3060 C.3    22  LEU22       0.1561
      3  C         29.1440  -20.7410   40.6280 C.2    22  LEU22       0.2260
      4  O         29.1110  -19.6930   39.9990 O.2    22  LEU22      -0.2867
      5  CB        31.0980  -19.9460   41.8940 C.3    22  LEU22       0.0270
      6  CG        31.1150  -19.8330   43.4160 C.3    22  LEU22       0.0019
      7  CD1       31.5170  -18.4190   43.7610 C.3    22  LEU22       0.0001
      8  CD2       29.7580  -20.1600   44.0270 C.3    22  LEU22       0.0001
      9  N         45.4510  -16.7020   47.4950 N.3    56  PHE56      -0.1241
     10  CA        45.5090  -15.7110   46.4180 C.3    56  PHE56       0.1605
     11  C         46.5480  -16.0980   45.3820 C.2    56  PHE56       0.2264
     12  O         47.7000  -16.3570   45.7190 O.2    56  PHE56      -0.2867
     13  CB        45.8450  -14.3360   46.9920 C.3    56  PHE56       0.0534
     14  CG        44.6450  -13.5840   47.4790 C.ar   56  PHE56      -0.0203
     15  CD1       43.6960  -14.2040   48.2870 C.ar   56  PHE56      -0.0042
     16  CD2       44.4650  -12.2510   47.1350 C.ar   56  PHE56      -0.0042
     17  CE1       42.5770  -13.4990   48.7490 C.ar   56  PHE56      -0.0003
     18  CE2       43.3540  -11.5380   47.5870 C.ar   56  PHE56      -0.0003
     19  CZ        42.4070  -12.1650   48.3980 C.ar   56  PHE56      -0.0000
     20  N         47.1710  -14.1730   42.4260 N.3    58  HIS58      -0.1241
     21  CA        47.7120  -13.0410   41.6830 C.3    58  HIS58       0.1621
     22  C         48.7800  -12.2410   42.4330 C.2    58  HIS58       0.2264
     23  O         49.1400  -11.1410   42.0090 O.2    58  HIS58      -0.2867
     24  CB        46.5880  -12.0920   41.2830 C.3    58  HIS58       0.0745
     25  CG        45.8000  -11.5910   42.4440 C.ar   58  HIS58       0.0817
     26  ND1       44.6940  -12.2530   42.9310 N.ar   58  HIS58      -0.2268
     27  CD2       45.9950  -10.5310   43.2610 C.ar   58  HIS58       0.1154
     28  CE1       44.2440  -11.6240   44.0010 C.ar   58  HIS58       0.1986
     29  NE2       45.0160  -10.5760   44.2240 N.ar   58  HIS58      -0.2212
     30  N         44.2040   -4.7370   44.6850 N.3    69  ILE69      -0.1245
     31  CA        42.8660   -5.3090   44.5630 C.3    69  ILE69       0.1561
     32  C         42.4510   -5.3090   43.0910 C.2    69  ILE69       0.2260
     33  O         41.9620   -6.3070   42.5790 O.2    69  ILE69      -0.2867
     34  CB        41.8220   -4.5070   45.3810 C.3    69  ILE69       0.0252
     35  CG1       42.1840   -4.5250   46.8570 C.3    69  ILE69       0.0019
     36  CG2       40.4380   -5.1290   45.2310 C.3    69  ILE69       0.0019
     37  CD1       41.1520   -3.8730   47.7230 C.3    69  ILE69       0.0001
     38  N         44.1560   -7.8040   41.0060 N.3    72  GLY72      -0.1210
     39  CA        43.5920   -9.1070   41.3050 C.3    72  GLY72       0.1956
     40  C         42.3370   -9.3890   40.5160 C.2    72  GLY72       0.2612
     41  O         42.1040  -10.5130   40.0710 O.2    72  GLY72      -0.2717
     42  N         41.5080   -8.3650   40.3510 N.am   73  CYS73      -0.1970
     43  CA        40.2810   -8.5090   39.5810 C.3    73  CYS73       0.1712
     44  C         40.6390   -8.8580   38.1530 C.2    73  CYS73       0.2296
     45  O         39.9120   -9.5830   37.4760 O.2    73  CYS73      -0.2864
     46  CB        39.4750   -7.2180   39.6060 C.3    73  CYS73       0.0983
     47  SG        38.4410   -7.0570   41.0570 S.3    73  CYS73      -0.0798
     48  N         43.2100  -10.6320   37.2110 N.3    75  PHE75      -0.1227
     49  CA        43.5610  -12.0500   37.1810 C.3    75  PHE75       0.1736
     50  C         42.3080  -12.9240   37.0860 C.2    75  PHE75       0.2595
     51  O         42.2670  -13.8980   36.3260 O.2    75  PHE75      -0.2718
     52  CB        44.3700  -12.3990   38.4340 C.3    75  PHE75       0.0547
     53  CG        44.8870  -13.8170   38.4730 C.ar   75  PHE75      -0.0202
     54  CD1       44.0660  -14.8680   38.8890 C.ar   75  PHE75      -0.0042
     55  CD2       46.1990  -14.0960   38.1180 C.ar   75  PHE75      -0.0042
     56  CE1       44.5560  -16.1820   38.9540 C.ar   75  PHE75      -0.0003
     57  CE2       46.7020  -15.4070   38.1790 C.ar   75  PHE75      -0.0003
     58  CZ        45.8760  -16.4500   38.6010 C.ar   75  PHE75      -0.0000
     59  N         41.2880  -12.5650   37.8540 N.am   76  ARG76      -0.1980
     60  CA        40.0310  -13.2960   37.8480 C.3    76  ARG76       0.1597
     61  C         39.2890  -13.0920   36.5350 C.2    76  ARG76       0.2287
     62  O         38.5800  -13.9750   36.0740 O.2    76  ARG76      -0.2864
     63  CB        39.1590  -12.8670   39.0250 C.3    76  ARG76       0.0334
     64  CG        38.2030  -13.9410   39.4930 C.3    76  ARG76       0.0492
     65  CD        37.9690  -14.9500   38.3930 C.3    76  ARG76       0.2205
     66  NE        37.2010  -16.0990   38.8500 N.pl3  76  ARG76      -0.0865
     67  CZ        36.3210  -16.7500   38.1000 C.cat  76  ARG76       0.5346
     68  NH1       36.0950  -16.3620   36.8580 N.pl3  76  ARG76       0.1354
     69  NH2       35.6650  -17.7860   38.5910 N.pl3  76  ARG76       0.1354
     70  N         40.8140  -15.2920   34.0460 N.3    79  GLU79      -0.1245
     71  CA        40.3660  -16.6540   34.2750 C.3    79  GLU79       0.1567
     72  C         38.9720  -16.8570   33.6780 C.2    79  GLU79       0.2260
     73  O         38.7340  -17.8220   32.9490 O.2    79  GLU79      -0.2867
     74  CB        40.2630  -16.9560   35.7510 C.3    79  GLU79       0.0388
     75  CG        41.5480  -17.2460   36.4260 C.3    79  GLU79       0.1160
     76  CD        41.2900  -17.8060   37.7950 C.2    79  GLU79       0.3649
     77  OE1       40.6350  -17.1150   38.6080 O.co2  79  GLU79      -0.2457
     78  OE2       41.7290  -18.9470   38.0470 O.co2  79  GLU79      -0.2457
     79  N         28.6970  -11.4650   37.4580 N.3   118  LEU118     -0.1245
     80  CA        29.2030  -10.8330   38.6580 C.3   118  LEU118      0.1561
     81  C         28.0290  -10.5800   39.6020 C.2   118  LEU118      0.2260
     82  O         28.2050  -10.5150   40.8260 O.2   118  LEU118     -0.2867
     83  CB        29.8450   -9.4910   38.3090 C.3   118  LEU118      0.0270
     84  CG        31.2090   -9.2040   38.9380 C.3   118  LEU118      0.0019
     85  CD1       31.4480   -7.7240   39.0060 C.3   118  LEU118      0.0001
     86  CD2       31.2580   -9.7580   40.3300 C.3   118  LEU118      0.0001
     87  N         26.8590  -13.3800   42.0810 N.3   121  LEU121     -0.1245
     88  CA        27.5690  -13.4690   43.3510 C.3   121  LEU121      0.1561
     89  C         27.5020  -12.1930   44.1630 C.2   121  LEU121      0.2260
     90  O         28.2590  -12.0300   45.1100 O.2   121  LEU121     -0.2867
     91  CB        29.0340  -13.8350   43.1220 C.3   121  LEU121      0.0270
     92  CG        29.3820  -14.7080   41.9100 C.3   121  LEU121      0.0019
     93  CD1       30.8780  -14.7550   41.7890 C.3   121  LEU121      0.0001
     94  CD2       28.8300  -16.1100   42.0430 C.3   121  LEU121      0.0001
     95  N         30.1550   -8.5890   47.7820 N.3   127  VAL127     -0.1231
     96  CA        30.3570   -9.6140   46.7600 C.3   127  VAL127      0.1692
     97  C         31.2570  -10.7510   47.2360 C.2   127  VAL127      0.2592
     98  O         32.1550  -10.5440   48.0550 O.2   127  VAL127     -0.2718
     99  CB        30.9770   -9.0060   45.4450 C.3   127  VAL127      0.0266
    100  CG1       32.3030   -8.3080   45.7410 C.3   127  VAL127      0.0020
    101  CG2       31.2010  -10.1080   44.3980 C.3   127  VAL127      0.0020
    102  N         31.0150  -11.9520   46.7220 N.am  128  LEU128     -0.1966
    103  CA        31.8240  -13.1070   47.0810 C.3   128  LEU128      0.1728
    104  C         33.0720  -13.1520   46.2150 C.2   128  LEU128      0.2616
    105  O         33.0040  -12.9250   45.0120 O.2   128  LEU128     -0.2715
    106  CB        31.0280  -14.3940   46.8830 C.3   128  LEU128      0.0311
    107  CG        29.7470  -14.5410   47.7030 C.3   128  LEU128      0.0022
    108  CD1       28.9970  -15.7640   47.2230 C.3   128  LEU128      0.0001
    109  CD2       30.0710  -14.6520   49.1940 C.3   128  LEU128      0.0001
    110  N         34.2110  -13.4410   46.8290 N.am  129  ILE129     -0.1963
    111  CA        35.4770  -13.5450   46.1130 C.3   129  ILE129      0.1727
    112  C         36.0790  -14.9370   46.3600 C.2   129  ILE129      0.2617
    113  O         35.5560  -15.7060   47.1730 O.2   129  ILE129     -0.2715
    114  CB        36.4940  -12.4690   46.5840 C.3   129  ILE129      0.0290
    115  CG1       36.9450  -12.7660   48.0200 C.3   129  ILE129      0.0022
    116  CG2       35.8770  -11.0640   46.4820 C.3   129  ILE129      0.0023
    117  CD1       38.1900  -12.0370   48.4360 C.3   129  ILE129      0.0001
    118  N         37.1610  -15.2530   45.6460 N.am  130  SER130     -0.1936
    119  CA        37.8510  -16.5340   45.8010 C.3   130  SER130      0.2055
    120  C         36.8600  -17.6780   45.7120 C.2   130  SER130      0.2642
    121  O         36.8880  -18.6250   46.4830 O.2   130  SER130     -0.2714
    122  CB        38.5710  -16.5600   47.1440 C.3   130  SER130      0.2130
    123  OG        39.3650  -17.7260   47.3030 O.3   130  SER130     -0.2179
    124  N         35.9590  -17.5790   44.7660 N.am  131  GLU131     -0.1976
    125  CA        34.9820  -18.6280   44.6110 C.3   131  GLU131      0.1602
    126  C         34.1850  -18.9760   45.8730 C.2   131  GLU131      0.2287
    127  O         34.0670  -20.1500   46.2500 O.2   131  GLU131     -0.2864
    128  CB        35.6530  -19.8980   44.0780 C.3   131  GLU131      0.0415
    129  CG        34.6130  -20.8820   43.5280 C.3   131  GLU131      0.1163
    130  CD        35.1520  -22.2580   43.1520 C.2   131  GLU131      0.3649
    131  OE1       35.7240  -22.4240   42.0490 O.co2 131  GLU131     -0.2457
    132  OE2       34.9910  -23.1860   43.9710 O.co2 131  GLU131     -0.2457
    133  N         33.7670   -9.5350   50.2060 N.3   136  MET136     -0.1245
    134  CA        34.2690   -8.1940   50.3720 C.3   136  MET136      0.1570
    135  C         33.0540   -7.2780   50.4030 C.2   136  MET136      0.2261
    136  O         32.2310   -7.3130   49.5030 O.2   136  MET136     -0.2867
    137  CB        35.1980   -7.8630   49.2070 C.3   136  MET136      0.0387
    138  CG        36.0610   -6.6350   49.4080 C.3   136  MET136      0.0595
    139  SD        37.3220   -6.4710   48.1170 S.3   136  MET136     -0.1393
    140  CE        38.5770   -7.6200   48.7280 C.3   136  MET136      0.0692
    141  N         34.8890   -1.4260   49.3050 N.3   141  LEU141     -0.1245
    142  CA        35.2450   -1.2170   47.8980 C.3   141  LEU141      0.1561
    143  C         34.9940    0.2480   47.5620 C.2   141  LEU141      0.2260
    144  O         35.7020    0.8700   46.7680 O.2   141  LEU141     -0.2867
    145  CB        34.3930   -2.1230   46.9760 C.3   141  LEU141      0.0270
    146  CG        34.7170   -3.6260   47.0220 C.3   141  LEU141      0.0019
    147  CD1       33.7380   -4.4380   46.2130 C.3   141  LEU141      0.0001
    148  CD2       36.1070   -3.8440   46.4940 C.3   141  LEU141      0.0001
    149  N         33.6200   -0.4010   41.3670 N.3   152  MET152     -0.1245
    150  CA        32.6160   -1.4170   41.6610 C.3   152  MET152      0.1570
    151  C         31.2390   -0.8750   42.0320 C.2   152  MET152      0.2261
    152  O         30.2660   -1.6190   42.0100 O.2   152  MET152     -0.2867
    153  CB        33.1160   -2.3660   42.7540 C.3   152  MET152      0.0387
    154  CG        34.1960   -3.3450   42.2830 C.3   152  MET152      0.0595
    155  SD        33.7570   -4.3460   40.8320 S.3   152  MET152     -0.1393
    156  CE        32.7780   -5.5870   41.5850 C.3   152  MET152      0.0692
@<TRIPOS>BOND
     1    73    72    2
     2    72    71    1
     3    70    71    1
     4    71    74    1
     5    74    75    1
     6    62    61    2
     7    51    50    2
     8    75    76    1
     9    61    60    1
    10    68    67    1
    11    50    49    1
    12    50    59   am
    13    49    48    1
    14    49    52    1
    15    79    80    1
    16    45    44    2
    17    76    78   ar
    18    76    77   ar
    19    60    59    1
    20    60    63    1
    21    67    69    1
    22    67    66    2
    23    55    57   ar
    24    55    53   ar
    25    44    43    1
    26    57    58   ar
    27    83    80    1
    28    83    84    1
    29    65    66    1
    30    65    64    1
    31    52    53    1
    32    53    54   ar
    33    58    56   ar
    34    80    81    1
    35    54    56   ar
    36    84    85    1
    37    84    86    1
    38    63    64    1
    39    43    46    1
    40    43    42    1
    41    81    82    2
    42    46    47    1
    43     4     3    2
    44    41    40    2
    45    42    40   am
    46     1     2    1
    47    40    39    1
    48     3     2    1
    49   155   156    1
    50   155   154    1
    51    38    39    1
    52    24    21    1
    53    24    25    1
    54     2     5    1
    55   149   150    1
    56   150   151    1
    57   150   153    1
    58    21    20    1
    59    21    22    1
    60    93    92    1
    61     5     6    1
    62    92    94    1
    63    92    91    1
    64    23    22    2
    65   152   151    2
    66   131   130   ar
    67    87    88    1
    68   154   153    1
    69    25    26   ar
    70    25    27   ar
    71    33    32    2
    72    26    28   ar
    73    32    31    1
    74    91    88    1
    75   130   129    1
    76   130   132   ar
    77    27    29   ar
    78    88    89    1
    79     6     7    1
    80     6     8    1
    81   129   128    1
    82    28    29   ar
    83   128   125    1
    84    89    90    2
    85   101    99    1
    86    31    30    1
    87    31    34    1
    88   125   124    1
    89   125   126    1
    90   124   120   am
    91   105   104    2
    92    36    34    1
    93    34    35    1
    94    11    12    2
    95    11    10    1
    96    99   100    1
    97    99    96    1
    98   118   119    1
    99   118   112   am
   100   120   119    1
   101   120   121    2
   102   119   122    1
   103   126   127    2
   104   111   112    1
   105   111   114    1
   106   111   110    1
   107   147   146    1
   108   104   110   am
   109   104   103    1
   110   112   113    2
   111    10    13    1
   112    10     9    1
   113   116   114    1
   114   148   146    1
   115   114   115    1
   116   102   103    1
   117   102    97   am
   118    96    97    1
   119    96    95    1
   120   144   143    2
   121    35    37    1
   122   106   103    1
   123   106   107    1
   124   145   146    1
   125   145   142    1
   126    13    14    1
   127    16    14   ar
   128    16    18   ar
   129   122   123    1
   130   108   107    1
   131    97    98    2
   132    14    15   ar
   133   143   142    1
   134    18    19   ar
   135   107   109    1
   136   142   141    1
   137   115   117    1
   138   139   140    1
   139   139   138    1
   140    15    17   ar
   141    19    17   ar
   142   137   138    1
   143   137   134    1
   144   136   135    2
   145   133   134    1
   146   134   135    1
