@<TRIPOS>MOLECULE
tmp/2vv9A00.pdb
 183 176 0 0 0
SMALL
GASTEIGER

@<TRIPOS>ATOM
      1  N         -0.5980   24.2010   -1.9810 N.3     8  GLU8       -0.1231
      2  CA        -0.1890   23.0710   -1.1390 C.3     8  GLU8        0.1699
      3  C         -0.7920   23.1540    0.2710 C.2     8  GLU8        0.2592
      4  O         -1.1450   24.2400    0.7320 O.2     8  GLU8       -0.2718
      5  CB         1.3470   22.9610   -1.0890 C.3     8  GLU8        0.0402
      6  CG         2.0820   24.1060   -0.4120 C.3     8  GLU8        0.1161
      7  CD         3.5870   23.8920   -0.4080 C.2     8  GLU8        0.3649
      8  OE1        4.1330   23.6040   -1.4900 O.co2   8  GLU8       -0.2457
      9  OE2        4.2210   24.0000    0.6660 O.co2   8  GLU8       -0.2457
     10  N         -0.9060   22.0110    0.9580 N.am    9  LYS9       -0.1966
     11  CA        -1.4560   21.9950    2.3180 C.3     9  LYS9        0.1728
     12  C         -0.3470   22.2370    3.3360 C.2     9  LYS9        0.2616
     13  O          0.6800   21.5590    3.3180 O.2     9  LYS9       -0.2715
     14  CB        -2.1860   20.6810    2.6240 C.3     9  LYS9        0.0311
     15  CG        -3.0630   20.7140    3.8950 C.3     9  LYS9        0.0038
     16  CD        -3.7040   19.3290    4.1910 C.3     9  LYS9        0.0206
     17  CE        -3.6320   18.9580    5.6750 C.3     9  LYS9        0.1093
     18  NZ        -3.9460   17.4980    5.9220 N.3     9  LYS9       -0.1314
     19  N         -0.5610   23.2010    4.2240 N.am   10  ILE10      -0.1963
     20  CA         0.4670   23.6150    5.1830 C.3    10  ILE10       0.1727
     21  C          0.0960   23.4030    6.6480 C.2    10  ILE10       0.2616
     22  O          0.9280   23.5890    7.5420 O.2    10  ILE10      -0.2715
     23  CB         0.8770   25.0920    4.9400 C.3    10  ILE10       0.0290
     24  CG1       -0.2890   26.0540    5.1870 C.3    10  ILE10       0.0022
     25  CG2        1.3900   25.2710    3.5210 C.3    10  ILE10       0.0023
     26  CD1        0.1060   27.5270    5.0820 C.3    10  ILE10       0.0001
     27  N         -1.1450   23.0170    6.9040 N.am   11  GLY11      -0.1955
     28  CA        -1.5700   22.7930    8.2700 C.3    11  GLY11       0.1869
     29  C         -2.8890   22.0720    8.3590 C.2    11  GLY11       0.2309
     30  O         -3.6730   22.0490    7.4100 O.2    11  GLY11      -0.2863
     31  N         -9.5020   23.4190   14.1090 N.3    15  TYR15      -0.1241
     32  CA       -10.0960   24.6280   13.5640 C.3    15  TYR15       0.1605
     33  C        -10.4800   24.1790   12.1590 C.2    15  TYR15       0.2264
     34  O        -11.6250   23.7590   11.9270 O.2    15  TYR15      -0.2867
     35  CB        -9.1340   25.7930   13.5520 C.3    15  TYR15       0.0534
     36  CG        -8.5510   26.0440   14.9360 C.ar   15  TYR15      -0.0201
     37  CD1       -9.4080   26.5020   15.9320 C.ar   15  TYR15      -0.0009
     38  CD2       -7.2340   25.8110   15.2950 C.ar   15  TYR15      -0.0009
     39  CE1       -8.9670   26.7520   17.2050 C.ar   15  TYR15       0.0417
     40  CE2       -6.7700   26.0330   16.5840 C.ar   15  TYR15       0.0417
     41  CZ        -7.6440   26.5090   17.5340 C.ar   15  TYR15       0.1957
     42  OH        -7.2760   26.7600   18.8510 O.3    15  TYR15      -0.2866
     43  N         -5.3830   24.4790    6.4770 N.3    18  VAL18      -0.1245
     44  CA        -4.7210   25.6600    5.9060 C.3    18  VAL18       0.1561
     45  C         -3.9580   25.3030    4.6390 C.2    18  VAL18       0.2260
     46  O         -3.2480   24.3160    4.6030 O.2    18  VAL18      -0.2867
     47  CB        -3.6930   26.3050    6.8830 C.3    18  VAL18       0.0252
     48  CG1       -3.2930   27.6900    6.3790 C.3    18  VAL18       0.0019
     49  CG2       -4.2440   26.4080    8.2800 C.3    18  VAL18       0.0019
     50  N         -1.9580   32.4750    2.9370 N.3    31  ALA31      -0.1245
     51  CA        -2.3700   31.2920    3.6540 C.3    31  ALA31       0.1562
     52  C         -3.8800   31.3480    3.7700 C.2    31  ALA31       0.2260
     53  O         -4.4380   32.3270    4.2320 O.2    31  ALA31      -0.2867
     54  CB        -1.7590   31.2640    4.9920 C.3    31  ALA31       0.0290
     55  N         -7.1650   29.6180    5.3710 N.3    33  LYS33      -0.1245
     56  CA        -7.6920   28.6980    6.3830 C.3    33  LYS33       0.1561
     57  C         -9.1680   28.4400    6.1100 C.2    33  LYS33       0.2260
     58  O         -9.9510   29.3670    6.1400 O.2    33  LYS33      -0.2867
     59  CB        -7.4990   29.3000    7.7800 C.3    33  LYS33       0.0271
     60  CG        -7.8650   28.3920    8.9540 C.3    33  LYS33       0.0035
     61  CD        -7.7110   29.1220   10.3080 C.3    33  LYS33       0.0206
     62  CE        -6.4440   28.7580   11.0770 C.3    33  LYS33       0.1093
     63  NZ        -5.8450   29.9260   11.8210 N.3    33  LYS33      -0.1314
     64  N          0.4590   37.6890   12.6230 N.3    58  VAL58      -0.1245
     65  CA         0.1570   37.3470   11.2420 C.3    58  VAL58       0.1561
     66  C         -1.1000   38.1290   10.8510 C.2    58  VAL58       0.2260
     67  O         -2.1510   38.0300   11.5050 O.2    58  VAL58      -0.2867
     68  CB        -0.0450   35.8160   11.0240 C.3    58  VAL58       0.0252
     69  CG1       -0.3160   35.5030    9.6100 C.3    58  VAL58       0.0019
     70  CG2        1.1740   35.0670   11.4230 C.3    58  VAL58       0.0019
     71  N         -4.8560   34.9190    5.3070 N.3    74  PHE74      -0.1227
     72  CA        -3.7530   35.5400    6.0270 C.3    74  PHE74       0.1736
     73  C         -2.5790   35.8930    5.1030 C.2    74  PHE74       0.2595
     74  O         -2.4350   35.3260    4.0270 O.2    74  PHE74      -0.2718
     75  CB        -3.2410   34.5820    7.1160 C.3    74  PHE74       0.0547
     76  CG        -4.2320   34.3260    8.2110 C.ar   74  PHE74      -0.0202
     77  CD1       -5.0940   33.2600    8.1420 C.ar   74  PHE74      -0.0042
     78  CD2       -4.3230   35.1920    9.2890 C.ar   74  PHE74      -0.0042
     79  CE1       -5.9990   33.0190    9.1720 C.ar   74  PHE74      -0.0003
     80  CE2       -5.2270   34.9810   10.2890 C.ar   74  PHE74      -0.0003
     81  CZ        -6.0670   33.8870   10.2340 C.ar   74  PHE74      -0.0000
     82  N         -1.7410   36.8330    5.5290 N.am   75  GLU75      -0.1965
     83  CA        -0.4220   36.9770    4.9060 C.3    75  GLU75       0.1733
     84  C          0.3050   35.6400    5.0820 C.2    75  GLU75       0.2616
     85  O          0.1660   34.9640    6.1090 O.2    75  GLU75      -0.2715
     86  CB         0.4070   38.1310    5.5170 C.3    75  GLU75       0.0429
     87  CG         0.8030   37.9130    6.9450 C.3    75  GLU75       0.1163
     88  CD         1.8690   38.8770    7.4800 C.2    75  GLU75       0.3649
     89  OE1        2.8820   39.1440    6.8060 O.co2  75  GLU75      -0.2457
     90  OE2        1.7070   39.3360    8.6050 O.co2  75  GLU75      -0.2457
     91  N          1.0240   35.2310    4.0550 N.am   76  PHE76      -0.1960
     92  CA         1.7740   33.9850    4.1020 C.3    76  PHE76       0.1771
     93  C          3.1640   34.2320    4.6750 C.2    76  PHE76       0.2619
     94  O          3.8320   35.1860    4.2970 O.2    76  PHE76      -0.2715
     95  CB         1.9070   33.4200    2.7010 C.3    76  PHE76       0.0574
     96  CG         2.6460   32.1310    2.6470 C.ar   76  PHE76      -0.0200
     97  CD1        2.0520   30.9640    3.0840 C.ar   76  PHE76      -0.0042
     98  CD2        3.9460   32.0810    2.1830 C.ar   76  PHE76      -0.0042
     99  CE1        2.7410   29.7500    3.0430 C.ar   76  PHE76      -0.0003
    100  CE2        4.6330   30.8840    2.1360 C.ar   76  PHE76      -0.0003
    101  CZ         4.0310   29.7150    2.5690 C.ar   76  PHE76      -0.0000
    102  N          3.5610   33.3820    5.6170 N.am   77  LEU77      -0.1963
    103  CA         4.9620   33.2440    6.0030 C.3    77  LEU77       0.1728
    104  C          5.4650   31.8310    5.6540 C.2    77  LEU77       0.2616
    105  O          4.6850   30.8730    5.6170 O.2    77  LEU77      -0.2715
    106  CB         5.1710   33.5610    7.4840 C.3    77  LEU77       0.0311
    107  CG         5.1170   35.0660    7.8020 C.3    77  LEU77       0.0022
    108  CD1        3.6870   35.5260    7.9850 C.3    77  LEU77       0.0001
    109  CD2        5.9380   35.4290    9.0290 C.3    77  LEU77       0.0001
    110  N          6.7750   31.7200    5.4130 N.am   78  HIS78      -0.1959
    111  CA         7.3420   30.5300    4.7690 C.3    78  HIS78       0.1787
    112  C          7.6790   29.3760    5.6820 C.2    78  HIS78       0.2620
    113  O          7.7740   28.2410    5.2290 O.2    78  HIS78      -0.2715
    114  CB         8.5770   30.9230    3.9710 C.3    78  HIS78       0.0785
    115  CG         8.2530   31.5390    2.6620 C.ar   78  HIS78       0.0821
    116  ND1        7.9080   32.8700    2.5280 N.ar   78  HIS78      -0.2267
    117  CD2        8.1950   31.0020    1.4230 C.ar   78  HIS78       0.1154
    118  CE1        7.6360   33.1170    1.2610 C.ar   78  HIS78       0.1986
    119  NE2        7.8200   32.0050    0.5670 N.ar   78  HIS78      -0.2212
    120  N          7.8100   29.6430    6.9640 N.am   79  GLN79      -0.1963
    121  CA         8.2290   28.6220    7.9040 C.3    79  GLN79       0.1733
    122  C          7.6900   28.8410    9.2960 C.2    79  GLN79       0.2616
    123  O          7.5410   29.9820    9.7520 O.2    79  GLN79      -0.2715
    124  CB         9.7570   28.5720    7.9620 C.3    79  GLN79       0.0408
    125  CG        10.3140   27.2910    8.5600 C.3    79  GLN79       0.0908
    126  CD        11.7400   27.0190    8.1250 C.2    79  GLN79       0.2608
    127  OE1       12.0060   26.7610    6.9380 O.2    79  GLN79      -0.2717
    128  NE2       12.6630   27.0750    9.0710 N.am   79  GLN79      -0.0878
    129  N          7.4090   27.7400    9.9810 N.am   80  ASP80      -0.1971
    130  CA         7.0580   27.8120   11.3900 C.3    80  ASP80       0.1709
    131  C          8.2950   27.5780   12.2780 C.2    80  ASP80       0.2293
    132  O          9.3430   27.0970   11.8070 O.2    80  ASP80      -0.2864
    133  CB         5.8650   26.8880   11.7310 C.3    80  ASP80       0.1436
    134  CG         6.2160   25.4120   11.7690 C.2    80  ASP80       0.3671
    135  OD1        7.3760   25.0400   11.5420 O.co2  80  ASP80      -0.2456
    136  OD2        5.3690   24.5310   12.0090 O.co2  80  ASP80      -0.2456
    137  N          9.7440   23.8010   12.6520 N.3    83  LYS83      -0.1245
    138  CA        10.6530   23.3560   11.6040 C.3    83  LYS83       0.1561
    139  C         12.0250   23.9960   11.7460 C.2    83  LYS83       0.2260
    140  O         13.0290   23.3600   11.4790 O.2    83  LYS83      -0.2867
    141  CB        10.0820   23.6540   10.2160 C.3    83  LYS83       0.0271
    142  CG         9.4540   22.4360    9.5750 C.3    83  LYS83       0.0035
    143  CD         8.1960   22.0000   10.3580 C.3    83  LYS83       0.0206
    144  CE         8.1050   20.5070   10.5430 C.3    83  LYS83       0.1093
    145  NZ         7.3860   19.8930    9.4080 N.3    83  LYS83      -0.1314
    146  N          4.3880   25.4680   16.5570 N.3   125  GLN125     -0.1231
    147  CA         3.6480   25.2860   15.3170 C.3   125  GLN125      0.1698
    148  C          2.8010   26.5120   14.9090 C.2   125  GLN125      0.2592
    149  O          2.4490   26.6430   13.7440 O.2   125  GLN125     -0.2718
    150  CB         2.7700   24.0280   15.3920 C.3   125  GLN125      0.0381
    151  CG         3.5690   22.6940   15.5310 C.3   125  GLN125      0.0905
    152  CD         3.9240   22.2510   16.9900 C.2   125  GLN125      0.2608
    153  OE1        4.4150   21.1380   17.1670 O.2   125  GLN125     -0.2717
    154  NE2        3.7190   23.1060   17.9850 N.am  125  GLN125     -0.0878
    155  N          2.4580   27.4080   15.8230 N.am  126  ASN126     -0.1974
    156  CA         1.7500   28.6250   15.3790 C.3   126  ASN126      0.1688
    157  C          2.5330   29.9170   15.5570 C.2   126  ASN126      0.2292
    158  O          1.9680   30.9860   15.5870 O.2   126  ASN126     -0.2864
    159  CB         0.3030   28.7300   15.8780 C.3   126  ASN126      0.1181
    160  CG         0.1510   28.5260   17.3390 C.2   126  ASN126      0.2629
    161  OD1        0.8810   29.1070   18.1310 O.2   126  ASN126     -0.2716
    162  ND2       -0.8690   27.7490   17.7220 N.am  126  ASN126     -0.0877
    163  N          5.4080   31.8890   13.3910 N.3   128  LEU128     -0.1245
    164  CA         5.8630   31.8640   12.0220 C.3   128  LEU128      0.1561
    165  C          6.9760   32.8680   11.8020 C.2   128  LEU128      0.2260
    166  O          6.9640   33.9640   12.3600 O.2   128  LEU128     -0.2867
    167  CB         4.6900   32.1740   11.0970 C.3   128  LEU128      0.0270
    168  CG         3.5780   31.1060   11.1140 C.3   128  LEU128      0.0019
    169  CD1        2.3740   31.6590   10.4060 C.3   128  LEU128      0.0001
    170  CD2        3.9980   29.8180   10.4250 C.3   128  LEU128      0.0001
    171  N          0.3600   33.3810   15.1820 N.3   138  ALA138     -0.1231
    172  CA        -0.7160   32.9670   14.2910 C.3   138  ALA138      0.1694
    173  C         -1.7380   32.0730   15.0090 C.2   138  ALA138      0.2592
    174  O         -1.4930   31.5930   16.1240 O.2   138  ALA138     -0.2718
    175  CB        -0.1370   32.2280   13.1090 C.3   138  ALA138      0.0304
    176  N         -2.8670   31.8560   14.3390 N.am  139  ASP139     -0.1974
    177  CA        -3.8820   30.8690   14.7310 C.3   139  ASP139      0.1709
    178  C         -4.3850   31.1670   16.1120 C.2   139  ASP139      0.2293
    179  O         -4.3330   30.3320   17.0070 O.2   139  ASP139     -0.2864
    180  CB        -3.3450   29.4310   14.6460 C.3   139  ASP139      0.1436
    181  CG        -4.4560   28.3850   14.7250 C.2   139  ASP139      0.3671
    182  OD1       -5.5830   28.6550   14.2530 O.co2 139  ASP139     -0.2456
    183  OD2       -4.2960   27.2600   15.2440 O.co2 139  ASP139     -0.2456
@<TRIPOS>BOND
     1     1     2    1
     2     8     7   ar
     3     2     5    1
     4     2     3    1
     5     5     6    1
     6     6     7    1
     7     7     9   ar
     8     3     4    2
     9     3    10   am
    10   119   118   ar
    11   119   117   ar
    12    10    11    1
    13   118   116   ar
    14   117   115   ar
    15   100    98   ar
    16   100   101   ar
    17    98    96   ar
    18    11    14    1
    19    11    12    1
    20   116   115   ar
    21   101    99   ar
    22    14    15    1
    23    96    95    1
    24    96    97   ar
    25   115   114    1
    26    95    92    1
    27    50    51    1
    28    99    97   ar
    29    13    12    2
    30    12    19   am
    31    25    23    1
    32    51    52    1
    33    51    54    1
    34    52    53    2
    35    15    16    1
    36   114   111    1
    37    74    73    2
    38    91    92    1
    39    91    84   am
    40    92    93    1
    41    16    17    1
    42    19    20    1
    43    94    93    2
    44    46    45    2
    45    45    44    1
    46    93   102   am
    47   111   110    1
    48   111   112    1
    49    83    84    1
    50    83    86    1
    51    83    82    1
    52    23    20    1
    53    23    24    1
    54    26    24    1
    55    84    85    2
    56    73    82   am
    57    73    72    1
    58    20    21    1
    59   113   112    2
    60    71    72    1
    61    55    56    1
    62   110   104   am
    63    86    87    1
    64   102   103    1
    65   105   104    2
    66   104   103    1
    67    17    18    1
    68   112   120   am
    69    44    43    1
    70    44    47    1
    71   103   106    1
    72    72    75    1
    73    57    58    2
    74    57    56    1
    75    48    47    1
    76    56    59    1
    77    21    27   am
    78    21    22    2
    79    89    88   ar
    80    47    49    1
    81    27    28    1
    82   127   126    2
    83    87    88    1
    84   120   121    1
    85    75    76    1
    86    30    29    2
    87    88    90   ar
    88   106   107    1
    89    59    60    1
    90   107   108    1
    91   107   109    1
    92   121   124    1
    93   121   122    1
    94   124   125    1
    95   126   125    1
    96   126   128   am
    97    77    76   ar
    98    77    79   ar
    99    76    78   ar
   100    28    29    1
   101    60    61    1
   102    79    81   ar
   103    78    80   ar
   104   122   123    2
   105   122   129   am
   106   145   144    1
   107   142   141    1
   108   142   143    1
   109    69    68    1
   110   129   130    1
   111   141   138    1
   112    81    80   ar
   113    61    62    1
   114   143   144    1
   115   169   168    1
   116   170   168    1
   117    66    65    1
   118    66    67    2
   119    68    65    1
   120    68    70    1
   121    62    63    1
   122   167   168    1
   123   167   164    1
   124    65    64    1
   125   130   133    1
   126   130   131    1
   127   140   139    2
   128   135   134   ar
   129   138   139    1
   130   138   137    1
   131   133   134    1
   132   134   136   ar
   133   165   164    1
   134   165   166    2
   135   132   131    2
   136    34    33    2
   137   164   163    1
   138    33    32    1
   139   175   172    1
   140    35    32    1
   141    35    36    1
   142    32    31    1
   143   149   148    2
   144   182   181   ar
   145   172   173    1
   146   172   171    1
   147   176   177    1
   148   176   173   am
   149   180   181    1
   150   180   177    1
   151   181   183   ar
   152   177   178    1
   153   148   147    1
   154   148   155   am
   155    36    38   ar
   156    36    37   ar
   157   173   174    2
   158    38    40   ar
   159   147   150    1
   160   147   146    1
   161   156   157    1
   162   156   155    1
   163   156   159    1
   164   150   151    1
   165   151   152    1
   166   157   158    2
   167   159   160    1
   168    37    39   ar
   169   178   179    2
   170    40    41   ar
   171   152   153    2
   172   152   154   am
   173    39    41   ar
   174   160   162   am
   175   160   161    2
   176    41    42    1
