@<TRIPOS>MOLECULE
tmp/2vvcA00.pdb
 184 182 0 0 0
SMALL
GASTEIGER

@<TRIPOS>ATOM
      1  N         12.2000   16.2550   31.8140 N.3    82  LYS82      -0.1231
      2  CA        12.9440   15.3730   30.9280 C.3    82  LYS82       0.1693
      3  C         14.4020   15.2790   31.3490 C.2    82  LYS82       0.2592
      4  O         15.1180   14.3410   30.9730 O.2    82  LYS82      -0.2718
      5  CB        12.8510   15.8900   29.4800 C.3    82  LYS82       0.0285
      6  CG        11.9860   14.9850   28.5850 C.3    82  LYS82       0.0035
      7  CD        11.7100   15.5900   27.1850 C.3    82  LYS82       0.0206
      8  CE        10.6700   14.7340   26.4300 C.3    82  LYS82       0.1093
      9  NZ        10.5740   15.0820   24.9810 N.3    82  LYS82      -0.1314
     10  N         14.8310   16.2970   32.0890 N.am   83  GLU83      -0.1966
     11  CA        16.2020   16.4430   32.5770 C.3    83  GLU83       0.1733
     12  C         16.5560   15.2420   33.4520 C.2    83  GLU83       0.2617
     13  O         17.6460   14.6580   33.3560 O.2    83  GLU83      -0.2715
     14  CB        16.2810   17.7320   33.4100 C.3    83  GLU83       0.0429
     15  CG        17.5370   17.8880   34.2470 C.3    83  GLU83       0.1163
     16  CD        17.3080   18.7390   35.5120 C.2    83  GLU83       0.3649
     17  OE1       16.1330   18.8760   35.9280 O.co2  83  GLU83      -0.2457
     18  OE2       18.2960   19.2530   36.0870 O.co2  83  GLU83      -0.2457
     19  N         15.6060   14.8680   34.2990 N.am   84  THR84      -0.1937
     20  CA        15.8480   13.8530   35.3150 C.3    84  THR84       0.2028
     21  C         14.9540   12.6510   35.1700 C.2    84  THR84       0.2642
     22  O         15.2280   11.6140   35.7480 O.2    84  THR84      -0.2714
     23  CB        15.5580   14.4010   36.7150 C.3    84  THR84       0.1808
     24  OG1       14.1800   14.7830   36.7910 O.3    84  THR84      -0.2208
     25  CG2       16.4220   15.6090   36.9950 C.3    84  THR84       0.0379
     26  N         13.8560   12.8180   34.4440 N.am   85  TYR85      -0.1973
     27  CA        12.7970   11.8000   34.3590 C.3    85  TYR85       0.1639
     28  C         12.1640   11.4410   35.7110 C.2    85  TYR85       0.2290
     29  O         11.5070   10.4030   35.8150 O.2    85  TYR85      -0.2864
     30  CB        13.2900   10.5170   33.6810 C.3    85  TYR85       0.0560
     31  CG        13.0180   10.4310   32.2030 C.ar   85  TYR85      -0.0198
     32  CD1       13.6260   11.3070   31.3040 C.ar   85  TYR85      -0.0009
     33  CD2       12.1380    9.4670   31.7010 C.ar   85  TYR85      -0.0009
     34  CE1       13.3660   11.2320   29.9410 C.ar   85  TYR85       0.0417
     35  CE2       11.8710    9.3800   30.3390 C.ar   85  TYR85       0.0417
     36  CZ        12.4900   10.2500   29.4680 C.ar   85  TYR85       0.1957
     37  OH        12.2390   10.1390   28.1180 O.3    85  TYR85      -0.2866
     38  N          8.4090   -2.1200   21.1790 N.3   132  ARG132     -0.1245
     39  CA         9.3820   -2.8860   20.3750 C.3   132  ARG132      0.1563
     40  C          9.6790   -4.2440   21.0050 C.2   132  ARG132      0.2260
     41  O          9.7210   -4.3760   22.2290 O.2   132  ARG132     -0.2867
     42  CB        10.7010   -2.1150   20.1950 C.3   132  ARG132      0.0307
     43  CG        10.5730   -0.7310   19.5680 C.3   132  ARG132      0.0489
     44  CD        11.9410   -0.1260   19.2790 C.3   132  ARG132      0.2205
     45  NE        11.8110    1.1100   18.5040 N.pl3 132  ARG132     -0.0865
     46  CZ        12.8270    1.8470   18.0770 C.cat 132  ARG132      0.5346
     47  NH1       14.0720    1.4850   18.3380 N.pl3 132  ARG132      0.1354
     48  NH2       12.5980    2.9490   17.3850 N.pl3 132  ARG132      0.1354
     49  N         15.4790   -4.0300   21.0810 N.3   135  GLU135     -0.1245
     50  CA        15.9220   -2.6240   21.0840 C.3   135  GLU135      0.1567
     51  C         15.8140   -1.8890   19.7200 C.2   135  GLU135      0.2260
     52  O         15.4010   -0.7170   19.6620 O.2   135  GLU135     -0.2867
     53  CB        17.3590   -2.4880   21.6410 C.3   135  GLU135      0.0388
     54  CG        17.7750   -1.0380   21.8180 C.3   135  GLU135      0.1160
     55  CD        19.1330   -0.8670   22.4750 C.2   135  GLU135      0.3649
     56  OE1       19.4470   -1.6320   23.4100 O.co2 135  GLU135     -0.2457
     57  OE2       19.8770    0.0560   22.0690 O.co2 135  GLU135     -0.2457
     58  N         22.5150    6.9520   35.1540 N.3   162  PHE162     -0.1227
     59  CA        21.6350    8.0570   35.3520 C.3   162  PHE162      0.1736
     60  C         21.1040    7.8730   36.7630 C.2   162  PHE162      0.2595
     61  O         20.9780    6.7440   37.2490 O.2   162  PHE162     -0.2718
     62  CB        20.4630    7.9700   34.3620 C.3   162  PHE162      0.0547
     63  CG        20.8590    8.1270   32.9050 C.ar  162  PHE162     -0.0202
     64  CD1       20.9070    9.3890   32.3130 C.ar  162  PHE162     -0.0042
     65  CD2       21.1460    7.0190   32.1270 C.ar  162  PHE162     -0.0042
     66  CE1       21.2600    9.5390   30.9640 C.ar  162  PHE162     -0.0003
     67  CE2       21.4960    7.1540   30.7980 C.ar  162  PHE162     -0.0003
     68  CZ        21.5590    8.4150   30.2130 C.ar  162  PHE162     -0.0000
     69  N         20.7510    8.9710   37.4100 N.am  163  ILE163     -0.1980
     70  CA        20.3100    8.9160   38.7900 C.3   163  ILE163      0.1595
     71  C         18.9580    8.2610   38.9180 C.2   163  ILE163      0.2287
     72  O         17.9990    8.6540   38.2470 O.2   163  ILE163     -0.2864
     73  CB        20.2730   10.3320   39.3920 C.3   163  ILE163      0.0276
     74  CG1       21.7150   10.8300   39.6160 C.3   163  ILE163      0.0022
     75  CG2       19.4460   10.3580   40.6820 C.3   163  ILE163      0.0022
     76  CD1       21.8070   12.2410   40.0850 C.3   163  ILE163      0.0001
     77  N         12.6740   -7.6360   28.6800 N.3   179  ASP179     -0.1225
     78  CA        12.5680   -6.2990   29.2300 C.3   179  ASP179      0.1805
     79  C         11.3800   -5.5850   28.5560 C.2   179  ASP179      0.2598
     80  O         10.6890   -6.1720   27.7210 O.2   179  ASP179     -0.2718
     81  CB        13.9000   -5.5910   28.9690 C.3   179  ASP179      0.1424
     82  CG        14.0550   -4.2760   29.7250 C.2   179  ASP179      0.3668
     83  OD1       13.2110   -3.9210   30.5950 O.co2 179  ASP179     -0.2456
     84  OD2       15.0630   -3.5900   29.4220 O.co2 179  ASP179     -0.2456
     85  N         11.1270   -4.3430   28.9600 N.am  180  ALA180     -0.1966
     86  CA        10.2160   -3.4670   28.2550 C.3   180  ALA180      0.1728
     87  C         11.0810   -2.7210   27.2470 C.2   180  ALA180      0.2616
     88  O         12.2910   -2.8850   27.2740 O.2   180  ALA180     -0.2715
     89  CB         9.5600   -2.4940   29.2240 C.3   180  ALA180      0.0334
     90  N         10.4750   -1.9260   26.3620 N.am  181  CYS181     -0.1954
     91  CA        11.2110   -1.2160   25.3020 C.3   181  CYS181      0.1843
     92  C         10.3840   -0.0330   24.7730 C.2   181  CYS181      0.2625
     93  O          9.2410    0.1790   25.1710 O.2   181  CYS181     -0.2714
     94  CB        11.5280   -2.1650   24.1400 C.3   181  CYS181      0.0997
     95  SG        13.0220   -1.7770   23.1530 S.3   181  CYS181     -0.0797
     96  N         10.9660    0.7050   23.8470 N.am  182  GLN182     -0.1977
     97  CA        10.3020    1.8500   23.2360 C.3   182  GLN182      0.1601
     98  C          8.9010    1.4240   22.8350 C.2   182  GLN182      0.2287
     99  O          8.7270    0.3820   22.2190 O.2   182  GLN182     -0.2864
    100  CB        11.1000    2.3460   22.0240 C.3   182  GLN182      0.0394
    101  CG        10.7700    3.7660   21.6320 C.3   182  GLN182      0.0908
    102  CD        11.8950    4.4140   20.8650 C.2   182  GLN182      0.2608
    103  OE1       12.0800    4.1610   19.6670 O.2   182  GLN182     -0.2717
    104  NE2       12.6650    5.2550   21.5530 N.am  182  GLN182     -0.0878
    105  N          6.5260    2.3530   27.2990 N.3   185  SER185     -0.1217
    106  CA         6.5090    3.5070   28.2020 C.3   185  SER185      0.1889
    107  C          5.0780    3.9230   28.5080 C.2   185  SER185      0.2288
    108  O          4.2260    3.9300   27.6060 O.2   185  SER185     -0.2866
    109  CB         7.2480    4.6810   27.5490 C.3   185  SER185      0.2089
    110  OG         8.6230    4.5950   27.8340 O.3   185  SER185     -0.2183
    111  N          5.8680    1.7230   33.3580 N.3   203  VAL203     -0.1231
    112  CA         7.0420    1.6410   32.5020 C.3   203  VAL203      0.1692
    113  C          7.5140    3.0450   32.2460 C.2   203  VAL203      0.2593
    114  O          6.7330    3.9340   31.8090 O.2   203  VAL203     -0.2718
    115  CB         6.7450    0.9670   31.1740 C.3   203  VAL203      0.0266
    116  CG1        8.0220    0.8360   30.3500 C.3   203  VAL203      0.0020
    117  CG2        6.1210   -0.3830   31.4220 C.3   203  VAL203      0.0020
    118  N          8.7750    3.2740   32.5740 N.am  204  SER204     -0.1938
    119  CA         9.2790    4.6300   32.5420 C.3   204  SER204      0.2055
    120  C         10.4800    4.8130   31.6390 C.2   204  SER204      0.2643
    121  O         10.4390    5.6250   30.6950 O.2   204  SER204     -0.2714
    122  CB         9.5780    5.1250   33.9620 C.3   204  SER204      0.2130
    123  OG        10.1520    6.4170   33.9030 O.3   204  SER204     -0.2179
    124  N         11.5620    4.1030   31.9190 N.am  205  TRP205     -0.1959
    125  CA        12.7370    4.2510   31.0590 C.3   205  TRP205      0.1771
    126  C         13.7600    3.1620   31.2370 C.2   205  TRP205      0.2620
    127  O         13.6810    2.3580   32.1740 O.2   205  TRP205     -0.2715
    128  CB        13.4010    5.6130   31.2510 C.3   205  TRP205      0.0590
    129  CG        13.9360    5.8710   32.6450 C.ar  205  TRP205      0.0006
    130  CD1       13.2170    6.2730   33.7120 C.ar  205  TRP205      0.0946
    131  CD2       15.3150    5.7630   33.0960 C.ar  205  TRP205      0.0152
    132  NE1       14.0400    6.4360   34.8170 N.ar  205  TRP205     -0.2442
    133  CE2       15.3320    6.1220   34.4650 C.ar  205  TRP205      0.0810
    134  CE3       16.5200    5.3890   32.4770 C.ar  205  TRP205      0.0012
    135  CZ2       16.5050    6.1130   35.2420 C.ar  205  TRP205      0.0191
    136  CZ3       17.7040    5.3980   33.2430 C.ar  205  TRP205      0.0001
    137  CH2       17.6800    5.7600   34.6210 C.ar  205  TRP205      0.0015
    138  N         14.7380    3.1550   30.3410 N.am  206  GLY206     -0.1940
    139  CA        15.8260    2.1900   30.3600 C.3   206  GLY206      0.2014
    140  C         16.8690    2.6670   29.3780 C.2   206  GLY206      0.2639
    141  O         16.5450    3.3990   28.4490 O.2   206  GLY206     -0.2714
    142  N         18.1260    2.2820   29.5850 N.am  207  GLU207     -0.1963
    143  CA        19.1870    2.6010   28.6270 C.3   207  GLU207      0.1733
    144  C         19.1790    1.4800   27.5930 C.2   207  GLU207      0.2617
    145  O         19.6450    0.3780   27.8720 O.2   207  GLU207     -0.2715
    146  CB        20.5550    2.6370   29.3300 C.3   207  GLU207      0.0429
    147  CG        20.6880    3.7270   30.4040 C.3   207  GLU207      0.1163
    148  CD        21.8600    3.4890   31.3600 C.2   207  GLU207      0.3649
    149  OE1       22.9890    3.3320   30.8630 O.co2 207  GLU207     -0.2457
    150  OE2       21.6470    3.4870   32.6040 O.co2 207  GLU207     -0.2457
    151  N         18.6410    1.7520   26.4080 N.am  208  GLY208     -0.1940
    152  CA        18.3950    0.6950   25.4450 C.3   208  GLY208      0.2014
    153  C         17.2830   -0.2210   25.9500 C.2   208  GLY208      0.2639
    154  O         16.4610    0.1840   26.7340 O.2   208  GLY208     -0.2714
    155  N         17.2820   -1.4720   25.5210 N.am  209  CYS209     -0.1967
    156  CA        16.2780   -2.4160   25.9860 C.3   209  CYS209      0.1712
    157  C         16.9330   -3.7440   26.2190 C.2   209  CYS209      0.2296
    158  O         17.5760   -4.2890   25.3190 O.2   209  CYS209     -0.2864
    159  CB        15.2180   -2.6140   24.9190 C.3   209  CYS209      0.0983
    160  SG        14.3470   -1.1150   24.5340 S.3   209  CYS209     -0.0798
    161  N         15.1680   -2.4660   33.7320 N.3   216  GLY216     -0.1210
    162  CA        14.0380   -1.6050   33.3770 C.3   216  GLY216      0.1956
    163  C         13.7570   -0.6940   34.5590 C.2   216  GLY216      0.2612
    164  O         13.8070   -1.1590   35.7120 O.2   216  GLY216     -0.2717
    165  N         13.4780    0.5900   34.2780 N.am  217  ILE217     -0.1965
    166  CA        13.2120    1.5690   35.3150 C.3   217  ILE217      0.1727
    167  C         11.7440    1.9860   35.2510 C.2   217  ILE217      0.2616
    168  O         11.2440    2.3700   34.1950 O.2   217  ILE217     -0.2715
    169  CB        14.1180    2.8110   35.1960 C.3   217  ILE217      0.0290
    170  CG1       15.5960    2.4310   34.8890 C.3   217  ILE217      0.0022
    171  CG2       14.0100    3.6500   36.4380 C.3   217  ILE217      0.0023
    172  CD1       16.3590    1.7280   36.0270 C.3   217  ILE217      0.0001
    173  N         11.0740    1.8890   36.4050 N.am  218  TYR218     -0.1974
    174  CA         9.6500    2.0900   36.5330 C.3   218  TYR218      0.1639
    175  C          9.4060    3.1620   37.5530 C.2   218  TYR218      0.2290
    176  O         10.1730    3.2760   38.5340 O.2   218  TYR218     -0.2864
    177  CB         8.9820    0.8190   37.0080 C.3   218  TYR218      0.0560
    178  CG         9.1210   -0.3470   36.0440 C.ar  218  TYR218     -0.0198
    179  CD1        8.0830   -0.7000   35.1920 C.ar  218  TYR218     -0.0009
    180  CD2       10.3190   -1.0640   35.9680 C.ar  218  TYR218     -0.0009
    181  CE1        8.2240   -1.7550   34.3070 C.ar  218  TYR218      0.0417
    182  CE2       10.4560   -2.1080   35.1170 C.ar  218  TYR218      0.0417
    183  CZ         9.4100   -2.4550   34.2810 C.ar  218  TYR218      0.1957
    184  OH         9.5850   -3.5110   33.4180 O.3   218  TYR218     -0.2866
@<TRIPOS>BOND
     1    48    46    1
     2    46    47    1
     3    46    45    2
     4    45    44    1
     5    44    43    1
     6    43    42    1
     7    52    51    2
     8   103   102    2
     9    51    50    1
    10    42    39    1
    11    39    40    1
    12    39    38    1
    13   102   104   am
    14   102   101    1
    15    40    41    2
    16    49    50    1
    17    50    53    1
    18   101   100    1
    19    53    54    1
    20    54    55    1
    21   100    97    1
    22    57    55   ar
    23    99    98    2
    24    55    56   ar
    25    98    97    1
    26    95    94    1
    27    95   160    1
    28    97    96    1
    29    96    92   am
    30    94    91    1
    31   160   159    1
    32    92    93    2
    33    92    91    1
    34   159   156    1
    35     9     8    1
    36    91    90    1
    37   158   157    2
    38   152   153    1
    39   152   151    1
    40   155   153   am
    41   155   156    1
    42   153   154    2
    43   156   157    1
    44    90    87   am
    45   151   144   am
    46     8     7    1
    47     7     6    1
    48    87    88    2
    49    87    86    1
    50   105   106    1
    51   109   110    1
    52   109   106    1
    53   144   145    2
    54   144   143    1
    55   108   107    2
    56    80    79    2
    57    37    36    1
    58   106   107    1
    59    86    85    1
    60    86    89    1
    61   141   140    2
    62    79    85   am
    63    79    78    1
    64     6     5    1
    65   143   146    1
    66   143   142    1
    67    77    78    1
    68    81    78    1
    69    81    82    1
    70   146   147    1
    71   140   142   am
    72   140   139    1
    73    84    82   ar
    74    36    34   ar
    75    36    35   ar
    76     5     2    1
    77    82    83   ar
    78    34    32   ar
    79    68    67   ar
    80    68    66   ar
    81    35    33   ar
    82   138   139    1
    83   138   126   am
    84   116   115    1
    85   147   148    1
    86   121   120    2
    87    67    65   ar
    88   149   148   ar
    89     2     3    1
    90     2     1    1
    91    66    64   ar
    92     4     3    2
    93   125   126    1
    94   125   128    1
    95   125   124    1
    96   115   117    1
    97   115   112    1
    98   126   127    2
    99   128   129    1
   100    32    31   ar
   101     3    10   am
   102   148   150   ar
   103   120   124   am
   104   120   119    1
   105    33    31   ar
   106   114   113    2
   107    10    11    1
   108    65    63   ar
   109    31    30    1
   110   113   112    1
   111   113   118   am
   112    64    63   ar
   113   134   131   ar
   114   134   136   ar
   115   112   111    1
   116   119   118    1
   117   119   122    1
   118    11    14    1
   119    11    12    1
   120   129   131   ar
   121   129   130   ar
   122    63    62    1
   123   131   133   ar
   124   136   137   ar
   125    13    12    2
   126   162   161    1
   127   162   163    1
   128    14    15    1
   129   184   183    1
   130    12    19   am
   131    30    27    1
   132   130   132   ar
   133   123   122    1
   134   168   167    2
   135    15    16    1
   136   165   163   am
   137   165   166    1
   138   183   181   ar
   139   183   182   ar
   140    19    20    1
   141   181   179   ar
   142    27    26    1
   143    27    28    1
   144    62    59    1
   145    26    21   am
   146   133   132   ar
   147   133   135   ar
   148   163   164    2
   149   137   135   ar
   150   170   169    1
   151   170   172    1
   152   182   180   ar
   153    58    59    1
   154    21    20    1
   155    21    22    2
   156   179   178   ar
   157   169   166    1
   158   169   171    1
   159   167   166    1
   160   167   173   am
   161    20    23    1
   162    59    60    1
   163    16    17   ar
   164    16    18   ar
   165    28    29    2
   166   180   178   ar
   167   178   177    1
   168   173   174    1
   169   174   177    1
   170   174   175    1
   171    23    24    1
   172    23    25    1
   173    60    61    2
   174    60    69   am
   175    69    70    1
   176   175   176    2
   177    72    71    2
   178    70    71    1
   179    70    73    1
   180    73    74    1
   181    73    75    1
   182    74    76    1
