@<TRIPOS>MOLECULE
tmp/2vvgB00.pdb
 123 120 0 0 0
SMALL
GASTEIGER

@<TRIPOS>ATOM
      1  N          7.8990   -7.8860  -17.8470 N.3     8  ARG8       -0.1231
      2  CA         8.1500   -9.2910  -18.1070 C.3     8  ARG8        0.1694
      3  C          7.1780   -9.7920  -19.1550 C.2     8  ARG8        0.2592
      4  O          5.9640   -9.7220  -18.9650 O.2     8  ARG8       -0.2718
      5  CB         7.9750  -10.1460  -16.8550 C.3     8  ARG8        0.0321
      6  CG         8.3140  -11.5980  -17.1530 C.3     8  ARG8        0.0489
      7  CD         8.0420  -12.5500  -16.0100 C.3     8  ARG8        0.2205
      8  NE         8.7650  -13.7940  -16.2720 N.pl3   8  ARG8       -0.0865
      9  CZ         8.7690  -14.8590  -15.4790 C.cat   8  ARG8        0.5346
     10  NH1        8.0710  -14.8610  -14.3510 N.pl3   8  ARG8        0.1354
     11  NH2        9.5060  -15.9110  -15.8080 N.pl3   8  ARG8        0.1354
     12  N          7.7180  -10.2950  -20.2580 N.am    9  CYS9       -0.1956
     13  CA         6.8980  -10.8280  -21.3300 C.3     9  CYS9        0.1843
     14  C          7.0380  -12.3420  -21.2860 C.2     9  CYS9        0.2625
     15  O          8.1510  -12.8680  -21.3190 O.2     9  CYS9       -0.2714
     16  CB         7.3840  -10.3010  -22.6780 C.3     9  CYS9        0.0997
     17  SG         6.3740  -10.8580  -24.0590 S.3     9  CYS9       -0.0797
     18  N          5.9090  -13.0390  -21.1940 N.am   10  ARG10      -0.1964
     19  CA         5.9150  -14.4960  -21.1330 C.3    10  ARG10       0.1714
     20  C          5.8790  -15.1040  -22.5310 C.2    10  ARG10       0.2458
     21  O          5.6970  -14.3950  -23.5200 O.2    10  ARG10      -0.2730
     22  CB         4.7010  -14.9840  -20.3420 C.3    10  ARG10       0.0347
     23  CG         3.3590  -14.5870  -20.9550 C.3    10  ARG10       0.0492
     24  CD         2.2270  -15.4250  -20.3590 C.3    10  ARG10       0.2205
     25  NE         0.8980  -14.9780  -20.7740 N.pl3  10  ARG10      -0.0865
     26  CZ         0.3960  -15.0940  -22.0010 C.cat  10  ARG10       0.5346
     27  NH1        1.1040  -15.6500  -22.9760 N.pl3  10  ARG10       0.1354
     28  NH2       -0.8330  -14.6620  -22.2500 N.pl3  10  ARG10       0.1354
     29  N          6.0830  -16.4290  -22.6310 N.am   11  PRO11      -0.2727
     30  CA         6.0530  -17.0850  -23.9410 C.3    11  PRO11       0.1402
     31  C          4.6070  -17.1090  -24.4260 C.2    11  PRO11       0.2269
     32  O          3.6790  -16.9830  -23.6210 O.2    11  PRO11      -0.2865
     33  CB         6.5400  -18.5050  -23.6370 C.3    11  PRO11       0.0296
     34  CG         7.3200  -18.3680  -22.3600 C.3    11  PRO11       0.0237
     35  CD         6.5130  -17.3670  -21.5790 C.3    11  PRO11       0.0939
     36  N          1.2260  -18.6020  -25.2250 N.3    13  ASN13      -0.1240
     37  CA         0.6530  -19.7800  -24.5880 C.3    13  ASN13       0.1653
     38  C         -0.1130  -20.6580  -25.5740 C.2    13  ASN13       0.2266
     39  O         -0.1670  -20.3630  -26.7690 O.2    13  ASN13      -0.2867
     40  CB        -0.2280  -19.3730  -23.3960 C.3    13  ASN13       0.1155
     41  CG        -1.4330  -18.5420  -23.7960 C.2    13  ASN13       0.2627
     42  OD1       -1.9870  -17.8060  -22.9770 O.2    13  ASN13      -0.2716
     43  ND2       -1.8580  -18.6660  -25.0430 N.am   13  ASN13      -0.0877
     44  N         10.7310  -14.0650  -22.9250 N.3    52  GLN52      -0.1245
     45  CA        10.3190  -15.4470  -22.7190 C.3    52  GLN52       0.1566
     46  C         11.4180  -16.3730  -22.2170 C.2    52  GLN52       0.2260
     47  O         11.1290  -17.4690  -21.7330 O.2    52  GLN52      -0.2867
     48  CB         9.7390  -16.0240  -24.0120 C.3    52  GLN52       0.0367
     49  CG        10.7500  -16.1750  -25.1280 C.3    52  GLN52       0.0905
     50  CD        10.1850  -16.9460  -26.3020 C.2    52  GLN52       0.2608
     51  OE1        9.7110  -18.0820  -26.0890 O.2    52  GLN52      -0.2717
     52  NE2       10.2140  -16.4230  -27.4360 N.am   52  GLN52      -0.0878
     53  N         13.3840  -15.6250  -19.7650 N.3    54  SER54      -0.1217
     54  CA        13.6360  -15.3240  -18.3610 C.3    54  SER54       0.1889
     55  C         13.0790  -16.3940  -17.4330 C.2    54  SER54       0.2288
     56  O         12.0690  -17.0330  -17.7330 O.2    54  SER54      -0.2866
     57  CB        13.0250  -13.9670  -17.9920 C.3    54  SER54       0.2089
     58  OG        11.6040  -14.0350  -18.0020 O.3    54  SER54      -0.2183
     59  N         -5.2600  -10.1150  -17.1470 N.3    85  THR85      -0.1203
     60  CA        -5.4470  -11.4810  -16.7130 C.3    85  THR85       0.1994
     61  C         -4.7620  -12.4070  -17.7100 C.2    85  THR85       0.2618
     62  O         -4.8610  -12.2190  -18.9250 O.2    85  THR85      -0.2717
     63  CB        -6.9450  -11.8150  -16.6160 C.3    85  THR85       0.1784
     64  OG1       -7.5400  -10.9930  -15.6020 O.3    85  THR85      -0.2211
     65  CG2       -7.1450  -13.2830  -16.2640 C.3    85  THR85       0.0376
     66  N         -4.0470  -13.3910  -17.1810 N.am   86  GLY86      -0.1942
     67  CA        -3.3400  -14.3450  -18.0180 C.3    86  GLY86       0.2014
     68  C         -1.9480  -13.9010  -18.4350 C.2    86  GLY86       0.2639
     69  O         -1.2080  -14.6820  -19.0300 O.2    86  GLY86      -0.2714
     70  N         -1.5820  -12.6610  -18.1180 N.am   87  ALA87      -0.1963
     71  CA        -0.2740  -12.1310  -18.5000 C.3    87  ALA87       0.1728
     72  C          0.9010  -12.7550  -17.7580 C.2    87  ALA87       0.2617
     73  O          1.9930  -12.8590  -18.3170 O.2    87  ALA87      -0.2715
     74  CB        -0.2530  -10.6140  -18.3210 C.3    87  ALA87       0.0334
     75  N          0.6890  -13.1550  -16.5040 N.am   88  GLY88      -0.1940
     76  CA         1.7690  -13.7670  -15.7460 C.3    88  GLY88       0.2014
     77  C          2.0410  -13.2410  -14.3440 C.2    88  GLY88       0.2639
     78  O          3.1040  -13.5130  -13.7830 O.2    88  GLY88      -0.2714
     79  N          1.0930  -12.5120  -13.7630 N.am   89  LYS89      -0.1963
     80  CA         1.2760  -11.9640  -12.4230 C.3    89  LYS89       0.1728
     81  C          1.4640  -13.0520  -11.3620 C.2    89  LYS89       0.2617
     82  O          2.4390  -13.0420  -10.6080 O.2    89  LYS89      -0.2715
     83  CB         0.0770  -11.0810  -12.0490 C.3    89  LYS89       0.0311
     84  CG        -0.1150   -9.8930  -12.9860 C.3    89  LYS89       0.0038
     85  CD        -1.3020   -9.0270  -12.5740 C.3    89  LYS89       0.0206
     86  CE        -2.6120   -9.7960  -12.6360 C.3    89  LYS89       0.1093
     87  NZ        -2.9430  -10.2550  -14.0150 N.3    89  LYS89      -0.1314
     88  N          0.5310  -13.9940  -11.3120 N.am   90  THR90      -0.1937
     89  CA         0.5940  -15.0680  -10.3290 C.3    90  THR90       0.2028
     90  C          1.7870  -15.9870  -10.5600 C.2    90  THR90       0.2642
     91  O          2.4310  -16.4310   -9.6040 O.2    90  THR90      -0.2714
     92  CB        -0.7280  -15.8550  -10.3300 C.3    90  THR90       0.1808
     93  OG1       -1.7770  -14.9730   -9.9160 O.3    90  THR90      -0.2208
     94  CG2       -0.6720  -17.0430   -9.3730 C.3    90  THR90       0.0379
     95  N          2.0890  -16.2750  -11.8220 N.am   91  TRP91      -0.1959
     96  CA         3.2390  -17.1120  -12.1190 C.3    91  TRP91       0.1771
     97  C          4.5030  -16.4080  -11.6420 C.2    91  TRP91       0.2620
     98  O          5.4110  -17.0320  -11.0910 O.2    91  TRP91      -0.2715
     99  CB         3.3560  -17.3870  -13.6200 C.3    91  TRP91       0.0590
    100  CG         4.6010  -18.1450  -13.9370 C.ar   91  TRP91       0.0006
    101  CD1        5.7410  -17.6550  -14.5030 C.ar   91  TRP91       0.0946
    102  CD2        4.8780  -19.5050  -13.5900 C.ar   91  TRP91       0.0152
    103  NE1        6.7160  -18.6250  -14.5260 N.ar   91  TRP91      -0.2442
    104  CE2        6.2120  -19.7700  -13.9680 C.ar   91  TRP91       0.0810
    105  CE3        4.1290  -20.5250  -12.9870 C.ar   91  TRP91       0.0012
    106  CZ2        6.8160  -21.0140  -13.7630 C.ar   91  TRP91       0.0191
    107  CZ3        4.7310  -21.7630  -12.7820 C.ar   91  TRP91       0.0001
    108  CH2        6.0620  -21.9940  -13.1690 C.ar   91  TRP91       0.0015
    109  N          4.5600  -15.0990  -11.8570 N.am   92  THR92      -0.1951
    110  CA         5.7180  -14.3220  -11.4410 C.3    92  THR92       0.1897
    111  C          5.8180  -14.1820   -9.9250 C.2    92  THR92       0.2313
    112  O          6.9060  -14.2750   -9.3580 O.2    92  THR92      -0.2863
    113  CB         5.6850  -12.9180  -12.0730 C.3    92  THR92       0.1794
    114  OG1        5.7610  -13.0510  -13.4950 O.3    92  THR92      -0.2208
    115  CG2        6.8600  -12.0630  -11.5830 C.3    92  THR92       0.0378
    116  N         -0.1330   -9.0600   -5.6210 N.3   218  ASP218     -0.1239
    117  CA        -0.5620   -9.6910   -6.8660 C.3   218  ASP218      0.1674
    118  C         -1.8930   -9.0150   -7.1760 C.2   218  ASP218      0.2266
    119  O         -2.9310   -9.4160   -6.6570 O.2   218  ASP218     -0.2867
    120  CB        -0.7590  -11.2000   -6.6430 C.3   218  ASP218      0.1410
    121  CG        -0.9860  -11.9630   -7.9330 C.2   218  ASP218      0.3668
    122  OD1       -1.2530  -11.3220   -8.9700 O.co2 218  ASP218     -0.2456
    123  OD2       -0.9070  -13.2130   -7.9070 O.co2 218  ASP218     -0.2456
@<TRIPOS>BOND
     1    52    50   am
     2    39    38    2
     3    50    51    2
     4    50    49    1
     5    38    37    1
     6    36    37    1
     7    49    48    1
     8    43    41   am
     9    37    40    1
    10    31    30    1
    11    31    32    2
    12    17    16    1
    13    48    45    1
    14    30    33    1
    15    30    29    1
    16    41    40    1
    17    41    42    2
    18    33    34    1
    19    21    20    2
    20    27    26    1
    21    44    45    1
    22    45    46    1
    23    16    13    1
    24    29    20   am
    25    29    35    1
    26    20    19    1
    27    34    35    1
    28    28    26    1
    29    46    47    2
    30    26    25    2
    31    13    14    1
    32    13    12    1
    33    15    14    2
    34    14    18   am
    35    18    19    1
    36    19    22    1
    37    23    24    1
    38    23    22    1
    39    25    24    1
    40    12     3   am
    41    53    54    1
    42     3     4    2
    43     3     2    1
    44    69    68    2
    45    62    61    2
    46    71    74    1
    47    71    70    1
    48    71    72    1
    49    68    70   am
    50    68    67    1
    51    54    57    1
    52    54    55    1
    53    73    72    2
    54     2     1    1
    55     2     5    1
    56    67    66    1
    57    58    57    1
    58    72    75   am
    59    56    55    2
    60    61    66   am
    61    61    60    1
    62     6     5    1
    63     6     7    1
    64    59    60    1
    65    60    63    1
    66    63    65    1
    67    63    64    1
    68    75    76    1
    69     8     7    1
    70     8     9    2
    71    11     9    1
    72    76    77    1
    73     9    10    1
    74   103   101   ar
    75   103   104   ar
    76   101   100   ar
    77    77    78    2
    78    77    79   am
    79    87    86    1
    80   104   106   ar
    81   104   102   ar
    82   100    99    1
    83   100   102   ar
    84   106   108   ar
    85    79    80    1
    86    99    96    1
    87   102   105   ar
    88   114   113    1
    89   108   107   ar
    90   105   107   ar
    91    84    85    1
    92    84    83    1
    93    86    85    1
    94    80    83    1
    95    80    81    1
    96    96    95    1
    97    96    97    1
    98   113   115    1
    99   113   110    1
   100   109    97   am
   101   109   110    1
   102    95    90   am
   103    97    98    2
   104   110   111    1
   105    81    88   am
   106    81    82    2
   107    88    89    1
   108    90    89    1
   109    90    91    2
   110    92    89    1
   111    92    93    1
   112    92    94    1
   113   111   112    2
   114   122   121   ar
   115   121   123   ar
   116   121   120    1
   117   118   117    1
   118   118   119    2
   119   117   120    1
   120   117   116    1
