@<TRIPOS>MOLECULE
tmp/2vvmA00.pdb
 124 123 0 0 0
SMALL
GASTEIGER

@<TRIPOS>ATOM
      1  N          7.9450   11.6740   38.1800 N.3    85  GLY85      -0.1210
      2  CA         8.8790   12.7580   37.8710 C.3    85  GLY85       0.1956
      3  C          9.8970   12.2960   36.8400 C.2    85  GLY85       0.2612
      4  O          9.5240   11.7930   35.7760 O.2    85  GLY85      -0.2717
      5  N         11.1790   12.4580   37.1630 N.am   86  GLY86      -0.1942
      6  CA        12.2740   12.0650   36.2660 C.3    86  GLY86       0.2014
      7  C         12.1320   10.6610   35.7170 C.2    86  GLY86       0.2640
      8  O         11.9620    9.7170   36.4830 O.2    86  GLY86      -0.2714
      9  N         12.2070   10.5270   34.3900 N.am   87  THR87      -0.1936
     10  CA        11.8790    9.2720   33.7200 C.3    87  THR87       0.2028
     11  C         12.9620    8.7150   32.7920 C.2    87  THR87       0.2642
     12  O         13.3880    7.5610   32.9430 O.2    87  THR87      -0.2714
     13  CB        10.5820    9.4180   32.8800 C.3    87  THR87       0.1808
     14  OG1        9.4930    9.7840   33.7320 O.3    87  THR87      -0.2208
     15  CG2       10.2450    8.1080   32.1630 C.3    87  THR87       0.0379
     16  N         13.3790    9.5260   31.8190 N.am   88  TRP88      -0.1973
     17  CA        14.1190    9.0120   30.6720 C.3    88  TRP88       0.1640
     18  C         15.6230    9.0990   30.8390 C.2    88  TRP88       0.2290
     19  O         16.1280   10.0280   31.4600 O.2    88  TRP88      -0.2864
     20  CB        13.6690    9.7050   29.3830 C.3    88  TRP88       0.0576
     21  CG        12.2800    9.2880   28.9730 C.ar   88  TRP88       0.0006
     22  CD1       11.9180    8.1050   28.3950 C.ar   88  TRP88       0.0946
     23  CD2       11.0750   10.0480   29.1220 C.ar   88  TRP88       0.0152
     24  NE1       10.5630    8.0810   28.1750 N.ar   88  TRP88      -0.2442
     25  CE2       10.0210    9.2620   28.6060 C.ar   88  TRP88       0.0810
     26  CE3       10.7830   11.3240   29.6350 C.ar   88  TRP88       0.0012
     27  CZ2        8.6890    9.7030   28.5920 C.ar   88  TRP88       0.0191
     28  CZ3        9.4600   11.7630   29.6220 C.ar   88  TRP88       0.0001
     29  CH2        8.4300   10.9500   29.1030 C.ar   88  TRP88       0.0015
     30  N          8.2680   22.6620   26.6350 N.3   207  LEU207     -0.1231
     31  CA         8.3100   21.3250   27.2220 C.3   207  LEU207      0.1693
     32  C          9.5930   21.1970   28.0490 C.2   207  LEU207      0.2592
     33  O          9.5700   20.7420   29.2040 O.2   207  LEU207     -0.2718
     34  CB         8.2880   20.2490   26.1370 C.3   207  LEU207      0.0284
     35  CG         8.6490   18.8150   26.5670 C.3   207  LEU207      0.0019
     36  CD1        7.5960   18.2380   27.5120 C.3   207  LEU207      0.0001
     37  CD2        8.8390   17.9110   25.3640 C.3   207  LEU207      0.0001
     38  N         10.7060   21.6150   27.4420 N.am  208  CYS208     -0.1970
     39  CA        12.0180   21.5320   28.0730 C.3   208  CYS208      0.1712
     40  C         12.1940   22.4860   29.2580 C.2   208  CYS208      0.2296
     41  O         12.8090   22.1110   30.2550 O.2   208  CYS208     -0.2864
     42  CB        13.1270   21.7480   27.0360 C.3   208  CYS208      0.0983
     43  SG        13.2300   20.4210   25.8120 S.3   208  CYS208     -0.0798
     44  N         21.2020   22.0210   26.7170 N.3   224  TRP224     -0.1241
     45  CA        20.5590   20.7140   26.5180 C.3   224  TRP224      0.1605
     46  C         20.8490   20.1700   25.1190 C.2   224  TRP224      0.2264
     47  O         21.2490   19.0190   24.9500 O.2   224  TRP224     -0.2867
     48  CB        19.0420   20.8530   26.6540 C.3   224  TRP224      0.0550
     49  CG        18.5110   20.9790   28.0570 C.ar  224  TRP224      0.0003
     50  CD1       19.0790   21.6390   29.1140 C.ar  224  TRP224      0.0946
     51  CD2       17.2660   20.4560   28.5310 C.ar  224  TRP224      0.0152
     52  NE1       18.2680   21.5340   30.2310 N.ar  224  TRP224     -0.2442
     53  CE2       17.1510   20.8120   29.8980 C.ar  224  TRP224      0.0810
     54  CE3       16.2410   19.7010   27.9360 C.ar  224  TRP224      0.0012
     55  CZ2       16.0460   20.4440   30.6800 C.ar  224  TRP224      0.0191
     56  CZ3       15.1420   19.3350   28.7150 C.ar  224  TRP224      0.0001
     57  CH2       15.0530   19.7140   30.0700 C.ar  224  TRP224      0.0015
     58  N         16.2280   12.5470   25.6740 N.3   239  LEU239     -0.1231
     59  CA        15.2100   13.1500   26.5460 C.3   239  LEU239      0.1693
     60  C         13.9500   12.3200   26.7620 C.2   239  LEU239      0.2591
     61  O         13.2880   12.4770   27.7860 O.2   239  LEU239     -0.2718
     62  CB        14.7710   14.5310   26.0310 C.3   239  LEU239      0.0284
     63  CG        15.8030   15.6180   25.7040 C.3   239  LEU239      0.0019
     64  CD1       15.1270   16.8850   25.1980 C.3   239  LEU239      0.0001
     65  CD2       16.6820   15.9270   26.8820 C.3   239  LEU239      0.0001
     66  N         13.5930   11.4740   25.7950 N.am  240  MET240     -0.1979
     67  CA        12.2590   10.8710   25.8180 C.3   240  MET240      0.1605
     68  C         12.1410    9.4810   25.1850 C.2   240  MET240      0.2287
     69  O         11.0390    9.0560   24.8280 O.2   240  MET240     -0.2864
     70  CB        11.2510   11.8300   25.1730 C.3   240  MET240      0.0413
     71  CG         9.8480   11.7610   25.7720 C.3   240  MET240      0.0598
     72  SD         8.7010   12.8910   24.9600 S.3   240  MET240     -0.1393
     73  CE         9.5520   14.4480   25.2040 C.3   240  MET240      0.0692
     74  N          6.7120   22.5450   35.3900 N.3   332  CYS332     -0.1235
     75  CA         6.1010   21.5030   34.5820 C.3   332  CYS332      0.1677
     76  C          5.0020   20.7290   35.3190 C.2   332  CYS332      0.2270
     77  O          5.1960   20.2530   36.4520 O.2   332  CYS332     -0.2867
     78  CB         7.1520   20.5210   34.0840 C.3   332  CYS332      0.0956
     79  SG         6.4540   19.2240   33.0470 S.3   332  CYS332     -0.0801
     80  N          3.0110   17.3230   34.9050 N.3   334  LYS334     -0.1245
     81  CA         3.1090   16.0540   34.2050 C.3   334  LYS334      0.1561
     82  C          1.9670   15.1490   34.6340 C.2   334  LYS334      0.2260
     83  O          1.8630   14.7870   35.8100 O.2   334  LYS334     -0.2867
     84  CB         4.4540   15.3910   34.4910 C.3   334  LYS334      0.0271
     85  CG         4.6530   14.0450   33.8060 C.3   334  LYS334      0.0035
     86  CD         6.0210   13.4830   34.1690 C.3   334  LYS334      0.0206
     87  CE         6.3080   12.2030   33.4310 C.3   334  LYS334      0.1093
     88  NZ         7.7550   11.8570   33.5330 N.3   334  LYS334     -0.1314
     89  N          2.2850   16.8190   29.1540 N.3   376  PHE376     -0.1241
     90  CA         3.1260   17.8370   29.7850 C.3   376  PHE376      0.1605
     91  C          2.5720   19.2390   29.5690 C.2   376  PHE376      0.2264
     92  O          2.2350   19.6230   28.4380 O.2   376  PHE376     -0.2867
     93  CB         4.5620   17.8040   29.2350 C.3   376  PHE376      0.0534
     94  CG         5.1990   16.4380   29.2180 C.ar  376  PHE376     -0.0203
     95  CD1        5.9440   15.9840   30.3040 C.ar  376  PHE376     -0.0042
     96  CD2        5.1070   15.6310   28.0870 C.ar  376  PHE376     -0.0042
     97  CE1        6.5560   14.7210   30.2700 C.ar  376  PHE376     -0.0003
     98  CE2        5.7190   14.3790   28.0430 C.ar  376  PHE376     -0.0003
     99  CZ         6.4400   13.9240   29.1390 C.ar  376  PHE376     -0.0000
    100  N         12.2440   19.8180   37.5290 N.3   424  TRP424     -0.1241
    101  CA        13.6470   19.9870   37.1660 C.3   424  TRP424      0.1605
    102  C         14.1300   21.4210   36.9730 C.2   424  TRP424      0.2264
    103  O         13.3850   22.2800   36.4970 O.2   424  TRP424     -0.2867
    104  CB        14.0100   19.2440   35.8720 C.3   424  TRP424      0.0550
    105  CG        13.4130   19.8610   34.6470 C.ar  424  TRP424      0.0003
    106  CD1       13.9470   20.8630   33.8830 C.ar  424  TRP424      0.0946
    107  CD2       12.1540   19.5300   34.0530 C.ar  424  TRP424      0.0152
    108  NE1       13.0940   21.1750   32.8460 N.ar  424  TRP424     -0.2442
    109  CE2       11.9910   20.3640   32.9240 C.ar  424  TRP424      0.0810
    110  CE3       11.1500   18.6010   34.3590 C.ar  424  TRP424      0.0012
    111  CZ2       10.8630   20.2960   32.1030 C.ar  424  TRP424      0.0191
    112  CZ3       10.0310   18.5320   33.5400 C.ar  424  TRP424      0.0001
    113  CH2        9.9010   19.3770   32.4210 C.ar  424  TRP424      0.0015
    114  N         19.0330   17.0040   35.0740 N.3   460  PHE460     -0.1241
    115  CA        18.6760   15.6300   34.7230 C.3   460  PHE460      0.1605
    116  C         19.0360   14.7400   35.9050 C.2   460  PHE460      0.2264
    117  O         19.7900   15.1480   36.7900 O.2   460  PHE460     -0.2867
    118  CB        19.3910   15.1250   33.4720 C.3   460  PHE460      0.0534
    119  CG        18.9560   15.8120   32.2150 C.ar  460  PHE460     -0.0203
    120  CD1       18.1330   15.1660   31.3120 C.ar  460  PHE460     -0.0042
    121  CD2       19.3560   17.1220   31.9450 C.ar  460  PHE460     -0.0042
    122  CE1       17.7300   15.8090   30.1320 C.ar  460  PHE460     -0.0003
    123  CE2       18.9500   17.7750   30.7840 C.ar  460  PHE460     -0.0003
    124  CZ        18.1390   17.1250   29.8800 C.ar  460  PHE460     -0.0000
@<TRIPOS>BOND
     1    69    68    2
     2    47    46    2
     3    72    73    1
     4    72    71    1
     5    46    45    1
     6    70    71    1
     7    70    67    1
     8    68    67    1
     9    64    63    1
    10    37    35    1
    11    58    59    1
    12    63    62    1
    13    63    65    1
    14    66    67    1
    15    66    60   am
    16    43    42    1
    17    62    59    1
    18    34    35    1
    19    34    31    1
    20    45    48    1
    21    45    44    1
    22    59    60    1
    23    35    36    1
    24    30    31    1
    25    48    49    1
    26    60    61    2
    27    42    39    1
    28    31    32    1
    29    38    32   am
    30    38    39    1
    31    54    51   ar
    32    54    56   ar
    33    98    96   ar
    34    98    99   ar
    35    32    33    2
    36    49    51   ar
    37    49    50   ar
    38    39    40    1
    39    96    94   ar
    40    24    22   ar
    41    24    25   ar
    42    22    21   ar
    43    92    91    2
    44    51    53   ar
    45    27    25   ar
    46    27    29   ar
    47    25    23   ar
    48    56    57   ar
    49    21    23   ar
    50    21    20    1
    51    29    28   ar
    52    50    52   ar
    53    23    26   ar
    54    99    97   ar
    55    89    90    1
    56    94    93    1
    57    94    95   ar
    58    93    90    1
    59    40    41    2
    60    20    17    1
    61    91    90    1
    62    28    26   ar
    63   124   122   ar
    64   124   123   ar
    65    53    52   ar
    66    53    55   ar
    67    57    55   ar
    68   122   120   ar
    69    97    95   ar
    70    17    18    1
    71    17    16    1
    72   123   121   ar
    73    18    19    2
    74   120   119   ar
    75    16    11   am
    76   121   119   ar
    77   111   113   ar
    78   111   109   ar
    79    15    13    1
    80   119   118    1
    81   113   112   ar
    82    11    12    2
    83    11    10    1
    84   108   109   ar
    85   108   106   ar
    86    13    10    1
    87    13    14    1
    88   109   107   ar
    89    79    78    1
    90    87    88    1
    91    87    86    1
    92   118   115    1
    93   112   110   ar
    94    10     9    1
    95    85    86    1
    96    85    84    1
    97   106   105   ar
    98   107   110   ar
    99   107   105   ar
   100    78    75    1
   101    81    84    1
   102    81    82    1
   103    81    80    1
   104     9     7   am
   105    75    76    1
   106    75    74    1
   107    82    83    2
   108   105   104    1
   109   115   114    1
   110   115   116    1
   111    76    77    2
   112     7     6    1
   113     7     8    2
   114     4     3    2
   115   104   101    1
   116   116   117    2
   117     6     5    1
   118   103   102    2
   119     3     5   am
   120     3     2    1
   121   102   101    1
   122   101   100    1
   123     2     1    1
