@<TRIPOS>MOLECULE
tmp/2vvoD01.pdb
 86 82 0 0 0
SMALL
GASTEIGER

@<TRIPOS>ATOM
      1  N         41.7370  -22.9920   27.8120 N.3     9  ASP9       -0.1225
      2  CA        40.7280  -23.6940   27.0420 C.3     9  ASP9        0.1805
      3  C         40.8430  -25.2080   27.3030 C.2     9  ASP9        0.2598
      4  O         41.6290  -25.6520   28.1600 O.2     9  ASP9       -0.2718
      5  CB        40.8030  -23.3340   25.5460 C.3     9  ASP9        0.1424
      6  CG        41.9740  -24.0020   24.7880 C.2     9  ASP9        0.3668
      7  OD1       42.8210  -24.7120   25.3830 O.co2   9  ASP9       -0.2456
      8  OD2       42.0440  -23.7570   23.5690 O.co2   9  ASP9       -0.2456
      9  N         40.0480  -25.9690   26.5790 N.am   10  HIS10      -0.1961
     10  CA        40.0400  -27.4400   26.6430 C.3    10  HIS10       0.1787
     11  C         41.4260  -28.0760   26.4890 C.2    10  HIS10       0.2620
     12  O         41.7600  -29.0430   27.2040 O.2    10  HIS10      -0.2715
     13  CB        39.0680  -27.9990   25.6070 C.3    10  HIS10       0.0785
     14  CG        39.4570  -27.6920   24.1950 C.ar   10  HIS10       0.0821
     15  ND1       38.9470  -26.6100   23.5110 N.ar   10  HIS10      -0.2267
     16  CD2       40.3320  -28.2990   23.3530 C.ar   10  HIS10       0.1154
     17  CE1       39.5050  -26.5560   22.3060 C.ar   10  HIS10       0.1986
     18  NE2       40.3290  -27.5810   22.1760 N.ar   10  HIS10      -0.2212
     19  N         42.2700  -27.5070   25.6220 N.am   11  ALA11      -0.1977
     20  CA        43.5700  -28.0650   25.3550 C.3    11  ALA11       0.1597
     21  C         44.5380  -27.8740   26.5400 C.2    11  ALA11       0.2287
     22  O         45.4640  -28.6520   26.7310 O.2    11  ALA11      -0.2864
     23  CB        44.1580  -27.4250   24.0650 C.3    11  ALA11       0.0319
     24  N         35.3390  -29.7980   24.6550 N.3    40  ALA40      -0.1245
     25  CA        36.2940  -30.0550   23.5740 C.3    40  ALA40       0.1562
     26  C         36.2790  -28.9640   22.4900 C.2    40  ALA40       0.2260
     27  O         37.2580  -28.7990   21.7590 O.2    40  ALA40      -0.2867
     28  CB        35.9950  -31.4460   22.9390 C.3    40  ALA40       0.0290
     29  N         39.5280  -20.3940   23.1850 N.3    44  TYR44      -0.1241
     30  CA        40.4770  -19.8460   24.1490 C.3    44  TYR44       0.1605
     31  C         40.3820  -18.3320   24.4810 C.2    44  TYR44       0.2264
     32  O         40.6770  -17.9570   25.6230 O.2    44  TYR44      -0.2867
     33  CB        41.9200  -20.2250   23.7810 C.3    44  TYR44       0.0534
     34  CG        42.3980  -19.6420   22.4660 C.ar   44  TYR44      -0.0201
     35  CD1       42.9470  -18.3760   22.4060 C.ar   44  TYR44      -0.0009
     36  CD2       42.2770  -20.3520   21.2810 C.ar   44  TYR44      -0.0009
     37  CE1       43.3370  -17.8420   21.2320 C.ar   44  TYR44       0.0417
     38  CE2       42.6770  -19.7990   20.0660 C.ar   44  TYR44       0.0417
     39  CZ        43.2010  -18.5450   20.0490 C.ar   44  TYR44       0.1957
     40  OH        43.6080  -17.9730   18.8490 O.3    44  TYR44      -0.2866
     41  N         46.8220  -23.2960   26.6420 N.3    67  GLY67      -0.1210
     42  CA        46.0720  -23.9960   25.6010 C.3    67  GLY67       0.1956
     43  C         46.9900  -25.0000   24.9350 C.2    67  GLY67       0.2612
     44  O         47.9260  -25.4870   25.5550 O.2    67  GLY67      -0.2717
     45  N         46.7720  -25.2610   23.6560 N.am   68  GLY68      -0.1942
     46  CA        47.5360  -26.2730   22.9480 C.3    68  GLY68       0.2014
     47  C         48.9640  -25.8700   22.6790 C.2    68  GLY68       0.2639
     48  O         49.8770  -26.5170   23.1020 O.2    68  GLY68      -0.2714
     49  N         49.1220  -24.7860   21.9300 N.am   69  SER69      -0.1949
     50  CA        50.4170  -24.3050   21.4970 C.3    69  SER69       0.1924
     51  C         50.9500  -23.1160   22.2960 C.2    69  SER69       0.2314
     52  O         52.1460  -22.8230   22.2370 O.2    69  SER69      -0.2863
     53  CB        50.3110  -23.9160   20.0160 C.3    69  SER69       0.2116
     54  OG        49.6280  -22.6910   19.8860 O.3    69  SER69      -0.2180
     55  N         50.4340  -20.0240   21.6240 N.3    71  ASN71      -0.1225
     56  CA        50.5930  -18.8070   20.8160 C.3    71  ASN71       0.1785
     57  C         49.3310  -17.9830   20.6740 C.2    71  ASN71       0.2598
     58  O         49.3790  -16.7940   20.9300 O.2    71  ASN71      -0.2718
     59  CB        51.3050  -19.0520   19.4970 C.3    71  ASN71       0.1169
     60  CG        52.7900  -18.7560   19.6080 C.2    71  ASN71       0.2627
     61  OD1       53.1590  -17.7400   20.1860 O.2    71  ASN71      -0.2716
     62  ND2       53.6420  -19.6260   19.0490 N.am   71  ASN71      -0.0877
     63  N         48.2050  -18.6130   20.3270 N.am   72  GLY72      -0.1942
     64  CA        46.9330  -17.8960   20.2730 C.3    72  GLY72       0.2014
     65  C         46.5650  -17.2770   21.6250 C.2    72  GLY72       0.2638
     66  O         46.0400  -16.1630   21.6920 O.2    72  GLY72      -0.2714
     67  N         46.8860  -17.9980   22.6950 N.am   73  GLU73      -0.1977
     68  CA        46.5900  -17.5780   24.0490 C.3    73  GLU73       0.1602
     69  C         47.3640  -16.3240   24.4390 C.2    73  GLU73       0.2287
     70  O         46.7800  -15.4010   24.9790 O.2    73  GLU73      -0.2864
     71  CB        46.9090  -18.6940   25.0620 C.3    73  GLU73       0.0415
     72  CG        46.2520  -20.0450   24.7620 C.3    73  GLU73       0.1163
     73  CD        47.1320  -20.9630   23.8540 C.2    73  GLU73       0.3649
     74  OE1       47.4110  -20.6100   22.7120 O.co2  73  GLU73      -0.2457
     75  OE2       47.5910  -22.0330   24.3190 O.co2  73  GLU73      -0.2457
     76  N         50.4490  -28.8480   24.8270 N.3   111  ARG111     -0.1245
     77  CA        50.8670  -29.8990   23.9020 C.3   111  ARG111      0.1563
     78  C         52.3690  -29.9110   23.6510 C.2   111  ARG111      0.2260
     79  O         52.8860  -30.8410   23.0540 O.2   111  ARG111     -0.2867
     80  CB        50.0830  -29.7860   22.5910 C.3   111  ARG111      0.0307
     81  CG        48.5740  -29.9930   22.7810 C.3   111  ARG111      0.0489
     82  CD        47.7350  -29.7600   21.4880 C.3   111  ARG111      0.2205
     83  NE        46.2940  -30.0440   21.6750 N.pl3 111  ARG111     -0.0865
     84  CZ        45.2880  -29.3780   21.0750 C.cat 111  ARG111      0.5346
     85  NH1       45.5180  -28.3580   20.2650 N.pl3 111  ARG111      0.1354
     86  NH2       44.0350  -29.7290   21.3000 N.pl3 111  ARG111      0.1354
@<TRIPOS>BOND
     1    40    39    1
     2    62    60   am
     3    59    60    1
     4    59    56    1
     5    60    61    2
     6    54    53    1
     7    53    50    1
     8    39    38   ar
     9    39    37   ar
    10    38    36   ar
    11    85    84    1
    12    64    63    1
    13    64    65    1
    14    63    57   am
    15    57    56    1
    16    57    58    2
    17    56    55    1
    18    84    86    1
    19    84    83    2
    20    37    35   ar
    21    36    34   ar
    22    82    83    1
    23    82    81    1
    24    50    49    1
    25    50    51    1
    26    65    66    2
    27    65    67   am
    28    27    26    2
    29    49    47   am
    30    18    17   ar
    31    18    16   ar
    32    52    51    2
    33    17    15   ar
    34    35    34   ar
    35    34    33    1
    36    26    25    1
    37    80    81    1
    38    80    77    1
    39    47    46    1
    40    47    48    2
    41    67    68    1
    42    74    73   ar
    43    28    25    1
    44    46    45    1
    45    79    78    2
    46    29    30    1
    47    16    14   ar
    48    15    14   ar
    49     8     6   ar
    50    25    24    1
    51    78    77    1
    52    45    43   am
    53    33    30    1
    54    73    75   ar
    55    73    72    1
    56    77    76    1
    57    68    69    1
    58    68    71    1
    59    23    20    1
    60    30    31    1
    61    14    13    1
    62    69    70    2
    63    31    32    2
    64    72    71    1
    65     6     7   ar
    66     6     5    1
    67    43    44    2
    68    43    42    1
    69    20    19    1
    70    20    21    1
    71     5     2    1
    72    42    41    1
    73    13    10    1
    74    19    11   am
    75    11    10    1
    76    11    12    2
    77    21    22    2
    78     9    10    1
    79     9     3   am
    80     2     3    1
    81     2     1    1
    82     3     4    2
