@<TRIPOS>MOLECULE
tmp/2vvqC00.pdb
 86 83 0 0 0
SMALL
GASTEIGER

@<TRIPOS>ATOM
      1  N         36.3950    3.1890   48.9840 N.3     9  ASP9       -0.1225
      2  CA        36.7860    1.9440   48.3530 C.3     9  ASP9        0.1805
      3  C         38.1710    1.5710   48.8870 C.2     9  ASP9        0.2598
      4  O         38.6980    2.2520   49.7530 O.2     9  ASP9       -0.2718
      5  CB        36.7280    2.0110   46.8190 C.3     9  ASP9        0.1424
      6  CG        37.8080    2.9040   46.1740 C.2     9  ASP9        0.3668
      7  OD1       38.6630    3.4940   46.8600 O.co2   9  ASP9       -0.2456
      8  OD2       37.7920    2.9840   44.9300 O.co2   9  ASP9       -0.2456
      9  N         38.7200    0.4760   48.3790 N.am   10  HIS10      -0.1961
     10  CA        40.0560   -0.0090   48.7470 C.3    10  HIS10       0.1787
     11  C         41.1730    1.0540   48.6630 C.2    10  HIS10       0.2620
     12  O         42.1060    1.0640   49.4810 O.2    10  HIS10      -0.2715
     13  CB        40.4060   -1.1950   47.8530 C.3    10  HIS10       0.0785
     14  CG        40.4060   -0.8640   46.3900 C.ar   10  HIS10       0.0821
     15  ND1       39.2800   -0.9580   45.6020 N.ar   10  HIS10      -0.2267
     16  CD2       41.3850   -0.3760   45.5910 C.ar   10  HIS10       0.1154
     17  CE1       39.5770   -0.5700   44.3750 C.ar   10  HIS10       0.1986
     18  NE2       40.8480   -0.2130   44.3400 N.ar   10  HIS10      -0.2212
     19  N         41.0560    1.9490   47.6800 N.am   11  ALA11      -0.1977
     20  CA        42.0790    2.9730   47.4150 C.3    11  ALA11       0.1597
     21  C         42.1000    4.0560   48.4820 C.2    11  ALA11       0.2287
     22  O         43.1320    4.6770   48.7050 O.2    11  ALA11      -0.2864
     23  CB        41.8940    3.5810   46.0100 C.3    11  ALA11       0.0319
     24  N         40.9270   -5.2580   47.4980 N.3    40  ALA40      -0.1245
     25  CA        41.6310   -4.6230   46.4020 C.3    40  ALA40       0.1562
     26  C         40.7660   -4.3560   45.1740 C.2    40  ALA40       0.2260
     27  O         41.0840   -3.4830   44.3610 O.2    40  ALA40      -0.2867
     28  CB        42.7860   -5.5190   46.0050 C.3    40  ALA40       0.0290
     29  N         33.6780    1.5620   44.4600 N.3    44  TYR44      -0.1241
     30  CA        33.3560    2.7490   45.2550 C.3    44  TYR44       0.1605
     31  C         31.8740    3.1820   45.3080 C.2    44  TYR44       0.2264
     32  O         31.4540    3.6600   46.3390 O.2    44  TYR44      -0.2867
     33  CB        34.2290    3.9580   44.8220 C.3    44  TYR44       0.0534
     34  CG        34.0470    4.3980   43.3950 C.ar   44  TYR44      -0.0201
     35  CD1       33.0490    5.3130   43.0520 C.ar   44  TYR44      -0.0009
     36  CD2       34.8890    3.9290   42.3850 C.ar   44  TYR44      -0.0009
     37  CE1       32.8800    5.7300   41.7350 C.ar   44  TYR44       0.0417
     38  CE2       34.7300    4.3280   41.0880 C.ar   44  TYR44       0.0417
     39  CZ        33.7280    5.2350   40.7510 C.ar   44  TYR44       0.1957
     40  OH        33.5790    5.6430   39.4260 O.3    44  TYR44      -0.2866
     41  N         41.1540    6.7830   45.3120 N.3    68  GLY68      -0.1210
     42  CA        42.5170    7.1010   44.8750 C.3    68  GLY68       0.1956
     43  C         42.7310    8.6040   44.7530 C.2    68  GLY68       0.2613
     44  O         43.5500    9.1860   45.4630 O.2    68  GLY68      -0.2717
     45  N         41.9700    9.2220   43.8540 N.am   69  SER69      -0.1938
     46  CA        41.9110   10.6900   43.6840 C.3    69  SER69       0.2055
     47  C         40.7660   11.3390   44.4610 C.2    69  SER69       0.2644
     48  O         40.7810   12.5460   44.6740 O.2    69  SER69      -0.2714
     49  CB        41.6900   11.0220   42.2040 C.3    69  SER69       0.2130
     50  OG        40.3660   10.6770   41.8450 O.3    69  SER69      -0.2179
     51  N         39.7540   10.5490   44.8200 N.am   70  GLY70      -0.1939
     52  CA        38.5090   11.0660   45.3800 C.3    70  GLY70       0.2014
     53  C         37.4430   11.4660   44.3590 C.2    70  GLY70       0.2639
     54  O         36.3220   11.8100   44.7370 O.2    70  GLY70      -0.2714
     55  N         37.7700   11.4230   43.0740 N.am   71  ASN71      -0.1958
     56  CA        36.8730   11.9480   42.0470 C.3    71  ASN71       0.1819
     57  C         35.6980   11.0640   41.7030 C.2    71  ASN71       0.2622
     58  O         34.5560   11.5590   41.6370 O.2    71  ASN71      -0.2715
     59  CB        37.6370   12.3930   40.8080 C.3    71  ASN71       0.1195
     60  CG        38.0060   13.8620   40.8540 C.2    71  ASN71       0.2630
     61  OD1       37.1870   14.6950   41.2510 O.2    71  ASN71      -0.2716
     62  ND2       39.2340   14.1920   40.4360 N.am   71  ASN71      -0.0877
     63  N         35.9420    9.7560   41.5710 N.am   72  GLY72      -0.1940
     64  CA        34.8480    8.7850   41.4390 C.3    72  GLY72       0.2014
     65  C         33.8450    8.8820   42.5700 C.2    72  GLY72       0.2638
     66  O         32.6400    8.7710   42.3650 O.2    72  GLY72      -0.2714
     67  N         34.3590    9.1240   43.7660 N.am   73  GLU73      -0.1977
     68  CA        33.5700    9.1210   44.9870 C.3    73  GLU73       0.1602
     69  C         32.7150   10.3720   45.1300 C.2    73  GLU73       0.2287
     70  O         31.5760   10.2700   45.5370 O.2    73  GLU73      -0.2864
     71  CB        34.4710    8.9530   46.2160 C.3    73  GLU73       0.0415
     72  CG        35.1610    7.6180   46.2760 C.3    73  GLU73       0.1163
     73  CD        36.2190    7.4400   45.2240 C.2    73  GLU73       0.3649
     74  OE1       36.9300    8.4150   44.9050 O.co2  73  GLU73      -0.2457
     75  OE2       36.3520    6.3180   44.6870 O.co2  73  GLU73      -0.2457
     76  N         45.5500    8.6810   47.4980 N.3   111  ARG111     -0.1245
     77  CA        46.8310    8.5790   46.8220 C.3   111  ARG111      0.1563
     78  C         47.5080    9.9390   46.6300 C.2   111  ARG111      0.2260
     79  O         48.6160    9.9860   46.1030 O.2   111  ARG111     -0.2867
     80  CB        46.6850    7.8670   45.4730 C.3   111  ARG111      0.0307
     81  CG        46.3480    6.3900   45.5800 C.3   111  ARG111      0.0489
     82  CD        45.9100    5.7930   44.2140 C.3   111  ARG111      0.2205
     83  NE        45.6710    4.3530   44.3400 N.pl3 111  ARG111     -0.0865
     84  CZ        44.7470    3.6150   43.7040 C.cat 111  ARG111      0.5346
     85  NH1       43.8720    4.1320   42.8390 N.pl3 111  ARG111      0.1354
     86  NH2       44.6930    2.3050   43.9720 N.pl3 111  ARG111      0.1354
@<TRIPOS>BOND
     1    40    39    1
     2    62    60   am
     3    39    38   ar
     4    39    37   ar
     5    59    60    1
     6    59    56    1
     7    60    61    2
     8    38    36   ar
     9    64    63    1
    10    64    65    1
    11    63    57   am
    12    58    57    2
    13    57    56    1
    14    37    35   ar
    15    50    49    1
    16    56    55    1
    17    49    46    1
    18    66    65    2
    19    36    34   ar
    20    65    67   am
    21    85    84    1
    22    35    34   ar
    23    55    53   am
    24    34    33    1
    25    46    45    1
    26    46    47    1
    27    84    86    1
    28    84    83    2
    29    67    68    1
    30    45    43   am
    31    82    83    1
    32    82    81    1
    33    18    17   ar
    34    18    16   ar
    35    53    54    2
    36    53    52    1
    37    27    26    2
    38    17    15   ar
    39    29    30    1
    40    47    48    2
    41    47    51   am
    42    75    73   ar
    43    43    42    1
    44    43    44    2
    45    51    52    1
    46    33    30    1
    47    42    41    1
    48    74    73   ar
    49     8     6   ar
    50    68    69    1
    51    68    71    1
    52    69    70    2
    53    26    25    1
    54    73    72    1
    55    30    31    1
    56    31    32    2
    57    80    81    1
    58    80    77    1
    59    16    14   ar
    60    15    14   ar
    61    28    25    1
    62    23    20    1
    63    79    78    2
    64     6     5    1
    65     6     7   ar
    66    71    72    1
    67    14    13    1
    68    25    24    1
    69    78    77    1
    70     5     2    1
    71    77    76    1
    72    20    19    1
    73    20    21    1
    74    19    11   am
    75    13    10    1
    76     2     3    1
    77     2     1    1
    78     9    10    1
    79     9     3   am
    80    21    22    2
    81    11    10    1
    82    11    12    2
    83     3     4    2
