@<TRIPOS>MOLECULE
tmp/2vvtA00.pdb
 170 162 0 0 0
SMALL
GASTEIGER

@<TRIPOS>ATOM
      1  N         12.0880   43.6870   79.2640 N.3    19  GLY19      -0.1210
      2  CA        10.9710   44.6170   79.2790 C.3    19  GLY19       0.1956
      3  C          9.8800   44.2340   78.3020 C.2    19  GLY19       0.2612
      4  O          9.4140   43.0970   78.2950 O.2    19  GLY19      -0.2717
      5  N          9.4460   45.1870   77.4890 N.am   20  VAL20      -0.1965
      6  CA         8.4240   44.9270   76.4860 C.3    20  VAL20       0.1727
      7  C          9.0200   44.5170   75.1360 C.2    20  VAL20       0.2616
      8  O          8.3020   43.9730   74.3060 O.2    20  VAL20      -0.2715
      9  CB         7.4790   46.1380   76.2490 C.3    20  VAL20       0.0290
     10  CG1        6.5320   46.3090   77.4430 C.3    20  VAL20       0.0023
     11  CG2        8.2470   47.3890   75.9250 C.3    20  VAL20       0.0023
     12  N         10.3010   44.7720   74.9050 N.am   21  GLY21      -0.1955
     13  CA        10.8800   44.4440   73.5950 C.3    21  GLY21       0.1869
     14  C         10.6890   42.9910   73.1960 C.2    21  GLY21       0.2309
     15  O         10.4720   42.6630   72.0110 O.2    21  GLY21      -0.2863
     16  N          8.3350   41.1600   73.3810 N.3    23  LEU23      -0.1231
     17  CA         7.0580   40.8580   72.7620 C.3    23  LEU23       0.1693
     18  C          7.1920   40.6750   71.2430 C.2    23  LEU23       0.2592
     19  O          6.2600   40.1620   70.6100 O.2    23  LEU23      -0.2718
     20  CB         6.0270   41.9390   73.0890 C.3    23  LEU23       0.0284
     21  CG         5.6120   42.0220   74.5660 C.3    23  LEU23       0.0019
     22  CD1        4.7420   43.2650   74.7470 C.3    23  LEU23       0.0001
     23  CD2        4.8770   40.7680   75.0630 C.3    23  LEU23       0.0001
     24  N          8.3320   41.0360   70.6580 N.am   24  THR24      -0.1953
     25  CA         8.5730   40.6830   69.2410 C.3    24  THR24       0.1897
     26  C          8.7050   39.1680   69.1420 C.2    24  THR24       0.2313
     27  O          8.2290   38.5580   68.1870 O.2    24  THR24      -0.2863
     28  CB         9.8000   41.3670   68.6540 C.3    24  THR24       0.1794
     29  OG1       10.9700   41.0350   69.3960 O.3    24  THR24      -0.2208
     30  CG2        9.5930   42.8970   68.6500 C.3    24  THR24       0.0378
     31  N         10.8000   45.4050   83.2220 N.3    44  THR44      -0.1218
     32  CA        10.7860   46.8010   82.8080 C.3    44  THR44       0.1862
     33  C         11.4310   47.7340   83.8330 C.2    44  THR44       0.2287
     34  O         12.0180   48.7490   83.4450 O.2    44  THR44      -0.2866
     35  CB         9.3710   47.3040   82.3860 C.3    44  THR44       0.1770
     36  OG1        8.5250   47.5090   83.5100 O.3    44  THR44      -0.2211
     37  CG2        8.7140   46.3640   81.4950 C.3    44  THR44       0.0375
     38  N         15.2020   47.4840   82.9120 N.3    47  CYS47      -0.1235
     39  CA        15.6000   47.6810   81.5240 C.3    47  CYS47       0.1677
     40  C         16.3040   49.0430   81.4020 C.2    47  CYS47       0.2270
     41  O         15.8690   50.0260   82.0390 O.2    47  CYS47      -0.2867
     42  CB        14.3430   47.6090   80.6630 C.3    47  CYS47       0.0956
     43  SG        14.5310   47.6690   78.8700 S.3    47  CYS47      -0.0801
     44  N         13.6770   52.9680   68.9690 N.3   158  VAL158     -0.1231
     45  CA        12.4080   52.2450   69.0260 C.3   158  VAL158      0.1692
     46  C         11.5750   52.7190   70.2240 C.2   158  VAL158      0.2591
     47  O         10.3600   52.9750   70.0880 O.2   158  VAL158     -0.2718
     48  CB        12.6450   50.7320   69.0650 C.3   158  VAL158      0.0266
     49  CG1       11.3160   49.9660   69.1840 C.3   158  VAL158      0.0020
     50  CG2       13.3950   50.3160   67.8210 C.3   158  VAL158      0.0020
     51  N         12.2280   52.8720   71.3720 N.am  159  GLU159     -0.1979
     52  CA        11.5200   53.2600   72.6170 C.3   159  GLU159      0.1602
     53  C         10.8610   54.6070   72.5340 C.2   159  GLU159      0.2287
     54  O          9.8130   54.8340   73.1560 O.2   159  GLU159     -0.2864
     55  CB        12.4750   53.3150   73.7800 C.3   159  GLU159      0.0415
     56  CG        12.9980   51.9930   74.1420 C.3   159  GLU159      0.1163
     57  CD        13.8940   52.0100   75.3300 C.2   159  GLU159      0.3649
     58  OE1       14.8050   52.8860   75.4660 O.co2 159  GLU159     -0.2457
     59  OE2       13.6750   51.1080   76.1460 O.co2 159  GLU159     -0.2457
     60  N          9.5300   55.8200   69.9030 N.3   161  ASN161     -0.1240
     61  CA         8.5580   55.8030   68.8240 C.3   161  ASN161      0.1653
     62  C          9.0370   56.4970   67.5490 C.2   161  ASN161      0.2266
     63  O          8.2260   57.0150   66.7820 O.2   161  ASN161     -0.2867
     64  CB         7.2350   56.4400   69.3050 C.3   161  ASN161      0.1155
     65  CG         6.1390   55.4250   69.5230 C.2   161  ASN161      0.2627
     66  OD1        5.4510   55.4600   70.5530 O.2   161  ASN161     -0.2716
     67  ND2        5.9610   54.5240   68.5740 N.am  161  ASN161     -0.0877
     68  N         11.0100   54.9750   65.1830 N.3   163  TYR163     -0.1241
     69  CA        11.6560   53.9290   64.3900 C.3   163  TYR163      0.1605
     70  C         11.3550   53.9670   62.8970 C.2   163  TYR163      0.2264
     71  O         12.0080   53.2570   62.1240 O.2   163  TYR163     -0.2867
     72  CB        11.3910   52.5450   64.9880 C.3   163  TYR163      0.0534
     73  CG         9.9430   52.2010   65.1890 C.ar  163  TYR163     -0.0201
     74  CD1        9.2080   51.5950   64.1860 C.ar  163  TYR163     -0.0009
     75  CD2        9.3070   52.4750   66.3970 C.ar  163  TYR163     -0.0009
     76  CE1        7.8740   51.2710   64.3780 C.ar  163  TYR163      0.0417
     77  CE2        7.9860   52.1610   66.5950 C.ar  163  TYR163      0.0417
     78  CZ         7.2710   51.5490   65.5870 C.ar  163  TYR163      0.1957
     79  OH         5.9310   51.2160   65.7810 O.3   163  TYR163     -0.2866
     80  N         15.9520   42.1780   70.5830 N.3   192  THR192     -0.1203
     81  CA        14.4940   42.1180   70.5410 C.3   192  THR192      0.1994
     82  C         13.8400   43.2790   69.8100 C.2   192  THR192      0.2617
     83  O         12.7410   43.1310   69.2830 O.2   192  THR192     -0.2717
     84  CB        13.8800   42.1470   71.9760 C.3   192  THR192      0.1784
     85  OG1       14.4500   43.1950   72.7580 O.3   192  THR192     -0.2211
     86  CG2       14.0920   40.8280   72.6830 C.3   192  THR192      0.0376
     87  N         14.4470   44.4510   69.8950 N.am  193  HIS193     -0.1975
     88  CA        13.8180   45.6700   69.3730 C.3   193  HIS193      0.1656
     89  C         14.0190   45.8480   67.8630 C.2   193  HIS193      0.2291
     90  O         13.3180   46.6210   67.2170 O.2   193  HIS193     -0.2864
     91  CB        14.3990   46.9000   70.0740 C.3   193  HIS193      0.0771
     92  CG        13.9910   47.0390   71.5190 C.ar  193  HIS193      0.0820
     93  ND1       14.1760   46.0540   72.4620 N.ar  193  HIS193     -0.2267
     94  CD2       13.4080   48.0810   72.1650 C.ar  193  HIS193      0.1154
     95  CE1       13.7270   46.4890   73.6330 C.ar  193  HIS193      0.1986
     96  NE2       13.2800   47.7320   73.4830 N.ar  193  HIS193     -0.2212
     97  N         11.4590   46.0990   64.7310 N.3   196  LEU196     -0.1245
     98  CA        10.7210   47.3480   64.4780 C.3   196  LEU196      0.1561
     99  C         11.5010   48.2670   63.5420 C.2   196  LEU196      0.2260
    100  O         10.9210   49.1100   62.8620 O.2   196  LEU196     -0.2867
    101  CB        10.4290   48.0830   65.7810 C.3   196  LEU196      0.0270
    102  CG         9.2660   47.5620   66.6500 C.3   196  LEU196      0.0019
    103  CD1        7.9780   47.7230   65.9140 C.3   196  LEU196      0.0001
    104  CD2        9.4000   46.1070   67.0640 C.3   196  LEU196      0.0001
    105  N          7.4660   46.7400   86.0460 N.3   243  GLY243     -0.1210
    106  CA         7.0130   48.1340   85.9880 C.3   243  GLY243      0.1956
    107  C          5.5060   48.2070   85.9830 C.2   243  GLY243      0.2612
    108  O          4.8300   47.2720   86.4040 O.2   243  GLY243     -0.2717
    109  N          4.9780   49.3300   85.4940 N.am  244  SER244     -0.1952
    110  CA         3.5360   49.5870   85.4560 C.3   244  SER244      0.1924
    111  C          2.7770   48.6190   84.5660 C.2   244  SER244      0.2314
    112  O          3.1260   48.4700   83.3850 O.2   244  SER244     -0.2863
    113  CB         3.2840   51.0030   84.9280 C.3   244  SER244      0.2116
    114  OG         1.9390   51.1330   84.5250 O.3   244  SER244     -0.2180
    115  N          1.2720   50.6750   81.6100 N.3   247  MET247     -0.1230
    116  CA         2.1890   51.1060   80.5640 C.3   247  MET247      0.1702
    117  C          2.5710   49.9020   79.7010 C.2   247  MET247      0.2592
    118  O          2.7000   50.0190   78.4820 O.2   247  MET247     -0.2718
    119  CB         3.4350   51.8050   81.1430 C.3   247  MET247      0.0401
    120  CG         3.1640   53.1180   81.8710 C.3   247  MET247      0.0596
    121  SD         2.0860   54.2140   80.9560 S.3   247  MET247     -0.1393
    122  CE         3.1070   54.5620   79.5340 C.3   247  MET247      0.0692
    123  N          2.7140   48.7440   80.3350 N.am  248  PHE248     -0.1976
    124  CA         2.9180   47.4860   79.5960 C.3   248  PHE248      0.1639
    125  C          1.7410   47.1920   78.6600 C.2   248  PHE248      0.2290
    126  O          1.9300   46.8660   77.4760 O.2   248  PHE248     -0.2864
    127  CB         3.1070   46.3270   80.5780 C.3   248  PHE248      0.0560
    128  CG         3.5300   45.0190   79.9230 C.ar  248  PHE248     -0.0200
    129  CD1        4.8630   44.6220   79.9430 C.ar  248  PHE248     -0.0042
    130  CD2        2.6010   44.2090   79.3220 C.ar  248  PHE248     -0.0042
    131  CE1        5.2500   43.4290   79.3610 C.ar  248  PHE248     -0.0003
    132  CE2        2.9850   42.9980   78.7140 C.ar  248  PHE248     -0.0003
    133  CZ         4.2970   42.6100   78.7640 C.ar  248  PHE248     -0.0000
    134  N         -0.4110   49.1490   77.3260 N.3   250  GLU250     -0.1231
    135  CA        -0.5900   50.0500   76.1970 C.3   250  GLU250      0.1699
    136  C          0.2570   49.6810   74.9910 C.2   250  GLU250      0.2592
    137  O         -0.2090   49.8080   73.8510 O.2   250  GLU250     -0.2718
    138  CB        -0.3920   51.4890   76.6190 C.3   250  GLU250      0.0402
    139  CG        -1.6220   51.9090   77.4270 C.3   250  GLU250      0.1161
    140  CD        -1.8730   53.3900   77.4260 C.2   250  GLU250      0.3649
    141  OE1       -0.9450   54.1700   77.1140 O.co2 250  GLU250     -0.2457
    142  OE2       -3.0240   53.7550   77.7550 O.co2 250  GLU250     -0.2457
    143  N          1.4690   49.2180   75.2470 N.am  251  ILE251     -0.1980
    144  CA         2.3530   48.7400   74.2020 C.3   251  ILE251      0.1595
    145  C          1.8790   47.3740   73.7220 C.2   251  ILE251      0.2287
    146  O          1.7080   47.1640   72.5050 O.2   251  ILE251     -0.2864
    147  CB         3.8200   48.6950   74.6840 C.3   251  ILE251      0.0276
    148  CG1        4.3720   50.1050   74.7940 C.3   251  ILE251      0.0022
    149  CG2        4.7000   47.9080   73.7160 C.3   251  ILE251      0.0022
    150  CD1        5.7190   50.1730   75.4140 C.3   251  ILE251      0.0001
    151  N         -2.0470   46.3590   71.7120 N.3   254  SER254     -0.1202
    152  CA        -2.1180   46.7590   70.3290 C.3   254  SER254      0.2020
    153  C         -1.0940   46.0220   69.5030 C.2   254  SER254      0.2618
    154  O         -1.4230   45.5480   68.4120 O.2   254  SER254     -0.2717
    155  CB        -1.8610   48.2600   70.1960 C.3   254  SER254      0.2103
    156  OG        -0.5130   48.5980   70.5180 O.3   254  SER254     -0.2182
    157  N          0.1450   45.9540   70.0020 N.am  255  TRP255     -0.1975
    158  CA         1.2310   45.2620   69.2780 C.3   255  TRP255      0.1640
    159  C          0.8200   43.8390   68.9350 C.2   255  TRP255      0.2290
    160  O          1.0740   43.3820   67.8040 O.2   255  TRP255     -0.2864
    161  CB         2.5500   45.2800   70.0820 C.3   255  TRP255      0.0576
    162  CG         3.6200   44.3970   69.5240 C.ar  255  TRP255      0.0006
    163  CD1        4.0870   43.2210   70.0740 C.ar  255  TRP255      0.0946
    164  CD2        4.3440   44.5770   68.2980 C.ar  255  TRP255      0.0152
    165  NE1        5.0560   42.6860   69.2740 N.ar  255  TRP255     -0.2442
    166  CE2        5.2320   43.4850   68.1710 C.ar  255  TRP255      0.0810
    167  CE3        4.3350   45.5600   67.2950 C.ar  255  TRP255      0.0012
    168  CZ2        6.1040   43.3480   67.0860 C.ar  255  TRP255      0.0191
    169  CZ3        5.1890   45.4120   66.2110 C.ar  255  TRP255      0.0001
    170  CH2        6.0680   44.3110   66.1160 C.ar  255  TRP255      0.0015
@<TRIPOS>BOND
     1    71    70    2
     2   100    99    2
     3    70    69    1
     4    99    98    1
     5    74    76   ar
     6    74    73   ar
     7    76    78   ar
     8    69    72    1
     9    69    68    1
    10    98    97    1
    11    98   101    1
    12    72    73    1
    13    73    75   ar
    14    78    79    1
    15    78    77   ar
    16   101   102    1
    17   103   102    1
    18   170   169   ar
    19   170   168   ar
    20   169   167   ar
    21    75    77   ar
    22   102   104    1
    23    63    62    2
    24   168   166   ar
    25    90    89    2
    26   167   164   ar
    27    62    61    1
    28   160   159    2
    29    50    48    1
    30    89    88    1
    31   166   164   ar
    32   166   165   ar
    33    27    26    2
    34   164   162   ar
    35   154   153    2
    36    67    65   am
    37    30    28    1
    38    28    25    1
    39    28    29    1
    40    61    64    1
    41    61    60    1
    42   159   158    1
    43    44    45    1
    44    45    48    1
    45    45    46    1
    46    48    49    1
    47    26    25    1
    48    25    24    1
    49   165   163   ar
    50   158   157    1
    51   158   161    1
    52    83    82    2
    53    64    65    1
    54    88    87    1
    55    88    91    1
    56   153   157   am
    57   153   152    1
    58    65    66    2
    59   162   163   ar
    60   162   161    1
    61    82    87   am
    62    82    81    1
    63    91    92    1
    64    47    46    2
    65   155   152    1
    66   155   156    1
    67    46    51   am
    68   152   151    1
    69    81    80    1
    70    81    84    1
    71    19    18    2
    72    24    18   am
    73    18    17    1
    74    51    52    1
    75    92    94   ar
    76    92    93   ar
    77    84    86    1
    78    84    85    1
    79    15    14    2
    80    94    96   ar
    81    93    95   ar
    82   146   145    2
    83    53    52    1
    84    53    54    2
    85    52    55    1
    86    17    20    1
    87    17    16    1
    88    20    21    1
    89    14    13    1
    90    96    95   ar
    91    13    12    1
    92   149   147    1
    93   145   144    1
    94    55    56    1
    95   137   136    2
    96    56    57    1
    97   144   147    1
    98   144   143    1
    99     8     7    2
   100    21    22    1
   101    21    23    1
   102   147   148    1
   103   148   150    1
   104    12     7   am
   105   136   143   am
   106   136   135    1
   107     7     6    1
   108    57    58   ar
   109    57    59   ar
   110    11     9    1
   111   135   138    1
   112   135   134    1
   113     9     6    1
   114     9    10    1
   115     6     5    1
   116   138   139    1
   117   141   140   ar
   118   140   139    1
   119   140   142   ar
   120   126   125    2
   121     5     3   am
   122     4     3    2
   123     3     2    1
   124   118   117    2
   125   125   124    1
   126   132   133   ar
   127   132   130   ar
   128   133   131   ar
   129    43    42    1
   130     1     2    1
   131   130   128   ar
   132   131   129   ar
   133   122   121    1
   134   124   123    1
   135   124   127    1
   136   117   123   am
   137   117   116    1
   138   128   129   ar
   139   128   127    1
   140   116   119    1
   141   116   115    1
   142    42    39    1
   143   121   120    1
   144   119   120    1
   145    40    39    1
   146    40    41    2
   147    37    35    1
   148    39    38    1
   149    35    32    1
   150    35    36    1
   151    32    31    1
   152    32    33    1
   153   112   111    2
   154    34    33    2
   155   114   113    1
   156   111   110    1
   157   113   110    1
   158   110   109    1
   159   109   107   am
   160   107   106    1
   161   107   108    2
   162   106   105    1
