@<TRIPOS>MOLECULE
tmp/2vvtA01.pdb
 112 108 0 0 0
SMALL
GASTEIGER

@<TRIPOS>ATOM
      1  N         12.3210   38.4920   79.4260 N.3    17  ASP17      -0.1225
      2  CA        12.9770   39.5740   78.6900 C.3    17  ASP17       0.1805
      3  C         13.1700   40.7510   79.6380 C.2    17  ASP17       0.2598
      4  O         12.5870   40.7900   80.7380 O.2    17  ASP17      -0.2718
      5  CB        12.1240   40.0040   77.4830 C.3    17  ASP17       0.1424
      6  CG        12.7200   41.1440   76.7180 C.2    17  ASP17       0.3668
      7  OD1       13.8560   40.9930   76.2420 O.co2  17  ASP17      -0.2456
      8  OD2       12.1010   42.2330   76.6440 O.co2  17  ASP17      -0.2456
      9  N         14.0280   41.6830   79.2460 N.am   18  SER18      -0.1952
     10  CA        14.2650   42.8760   80.0500 C.3    18  SER18       0.1924
     11  C         13.1210   43.8680   80.0960 C.2    18  SER18       0.2314
     12  O         13.1390   44.7890   80.9260 O.2    18  SER18      -0.2863
     13  CB        15.5520   43.5760   79.6180 C.3    18  SER18       0.2116
     14  OG        15.4490   44.0540   78.3030 O.3    18  SER18      -0.2180
     15  N         15.2020   47.4840   82.9120 N.3    47  CYS47      -0.1221
     16  CA        15.6000   47.6810   81.5240 C.3    47  CYS47       0.1794
     17  C         16.3040   49.0430   81.4020 C.2    47  CYS47       0.2443
     18  O         15.8690   50.0260   82.0390 O.2    47  CYS47      -0.2733
     19  CB        14.3430   47.6090   80.6630 C.3    47  CYS47       0.0970
     20  SG        14.5310   47.6690   78.8700 S.3    47  CYS47      -0.0800
     21  N         17.3560   49.1480   80.5640 N.am   48  PRO48      -0.2718
     22  CA        17.9670   48.1760   79.6850 C.3    48  PRO48       0.1535
     23  C         19.0170   47.2980   80.3290 C.2    48  PRO48       0.2599
     24  O         19.7100   47.7120   81.2500 O.2    48  PRO48      -0.2715
     25  CB        18.6420   49.0640   78.6280 C.3    48  PRO48       0.0310
     26  CG        19.0930   50.2470   79.4000 C.3    48  PRO48       0.0237
     27  CD        17.9580   50.4790   80.3690 C.3    48  PRO48       0.0939
     28  N         19.1210   46.0670   79.8300 N.am   49  TYR49      -0.1960
     29  CA        20.2190   45.1890   80.1750 C.3    49  TYR49       0.1771
     30  C         21.4620   45.4240   79.3170 C.2    49  TYR49       0.2620
     31  O         22.5740   45.1040   79.7370 O.2    49  TYR49      -0.2715
     32  CB        19.7860   43.7290   80.0360 C.3    49  TYR49       0.0574
     33  CG        18.8500   43.1810   81.0750 C.ar   49  TYR49      -0.0198
     34  CD1       18.2250   43.9820   82.0520 C.ar   49  TYR49      -0.0009
     35  CD2       18.5480   41.8040   81.0690 C.ar   49  TYR49      -0.0009
     36  CE1       17.3100   43.4090   82.9810 C.ar   49  TYR49       0.0417
     37  CE2       17.6590   41.2450   81.9800 C.ar   49  TYR49       0.0417
     38  CZ        17.0470   42.0430   82.9290 C.ar   49  TYR49       0.1957
     39  OH        16.1900   41.4520   83.8020 O.3    49  TYR49      -0.2866
     40  N         21.2730   45.9740   78.1100 N.am   50  GLY50      -0.1954
     41  CA        22.3590   46.2110   77.1210 C.3    50  GLY50       0.1869
     42  C         23.6970   46.6650   77.6730 C.2    50  GLY50       0.2309
     43  O         24.7400   46.0570   77.4190 O.2    50  GLY50      -0.2863
     44  N         15.3630   37.7110   75.4040 N.3    80  CYS80      -0.1221
     45  CA        16.2990   38.8250   75.3850 C.3    80  CYS80       0.1808
     46  C         17.6560   38.3540   74.8820 C.2    80  CYS80       0.2601
     47  O         18.2310   37.4000   75.4220 O.2    80  CYS80      -0.2717
     48  CB        16.4580   39.3190   76.8200 C.3    80  CYS80       0.0970
     49  SG        17.5950   40.7300   76.9560 S.3    80  CYS80      -0.0800
     50  N         18.1790   39.0080   73.8470 N.am   81  ASN81      -0.1960
     51  CA        19.5040   38.6490   73.3240 C.3    81  ASN81       0.1819
     52  C         20.6040   38.9420   74.3230 C.2    81  ASN81       0.2621
     53  O         21.6090   38.2140   74.3760 O.2    81  ASN81      -0.2715
     54  CB        19.8040   39.3430   71.9850 C.3    81  ASN81       0.1195
     55  CG        18.7960   38.9920   70.9080 C.2    81  ASN81       0.2630
     56  OD1       17.6340   39.4110   71.0010 O.2    81  ASN81      -0.2716
     57  ND2       19.2190   38.2180   69.8730 N.am   81  ASN81      -0.0877
     58  N         20.4360   40.0200   75.0930 N.am   82  THR82      -0.1951
     59  CA        21.4540   40.4210   76.0510 C.3    82  THR82       0.1897
     60  C         21.5070   39.4020   77.1960 C.2    82  THR82       0.2313
     61  O         22.5740   38.9550   77.5810 O.2    82  THR82      -0.2863
     62  CB        21.2030   41.8480   76.6020 C.3    82  THR82       0.1794
     63  OG1       21.1460   42.7840   75.5180 O.3    82  THR82      -0.2208
     64  CG2       22.3400   42.2430   77.5630 C.3    82  THR82       0.0378
     65  N         23.0360   44.8410   71.3010 N.3   124  THR124     -0.1218
     66  CA        23.4930   45.6860   72.3770 C.3   124  THR124      0.1862
     67  C         24.9870   45.5330   72.6500 C.2   124  THR124      0.2287
     68  O         25.6480   44.5770   72.2160 O.2   124  THR124     -0.2866
     69  CB        22.7860   45.3620   73.6890 C.3   124  THR124      0.1770
     70  OG1       23.1440   44.0380   74.1010 O.3   124  THR124     -0.2211
     71  CG2       21.2490   45.5220   73.5580 C.3   124  THR124      0.0375
     72  N         25.4800   42.1190   74.4000 N.3   127  THR127     -0.1218
     73  CA        25.4290   41.0100   73.4430 C.3   127  THR127      0.1862
     74  C         26.7130   40.8710   72.6420 C.2   127  THR127      0.2287
     75  O         27.2420   39.7710   72.5010 O.2   127  THR127     -0.2866
     76  CB        24.2140   41.2090   72.5190 C.3   127  THR127      0.1770
     77  OG1       23.0410   41.1150   73.3390 O.3   127  THR127     -0.2211
     78  CG2       24.1180   40.1590   71.4010 C.3   127  THR127      0.0375
     79  N         18.0680   50.7650   70.3320 N.3   155  VAL155     -0.1245
     80  CA        16.9990   50.5160   71.2930 C.3   155  VAL155      0.1561
     81  C         16.2440   51.8170   71.6350 C.2   155  VAL155      0.2260
     82  O         15.0230   51.8660   71.5190 O.2   155  VAL155     -0.2867
     83  CB        17.4590   49.7500   72.5390 C.3   155  VAL155      0.0252
     84  CG1       16.4170   49.8550   73.6860 C.3   155  VAL155      0.0019
     85  CG2       17.6800   48.2610   72.1930 C.3   155  VAL155      0.0019
     86  N         20.2790   40.9690   66.1220 N.3   190  GLY190     -0.1210
     87  CA        20.5480   40.3640   67.4040 C.3   190  GLY190      0.1956
     88  C         20.0420   41.0780   68.6480 C.2   190  GLY190      0.2612
     89  O         20.7780   41.1740   69.6270 O.2   190  GLY190     -0.2717
     90  N         18.7900   41.5480   68.6100 N.am  191  CYS191     -0.1956
     91  CA        18.2000   42.3390   69.6800 C.3   191  CYS191      0.1843
     92  C         16.7000   42.3180   69.4900 C.2   191  CYS191      0.2626
     93  O         16.2400   42.3920   68.3630 O.2   191  CYS191     -0.2714
     94  CB        18.7250   43.7800   69.5930 C.3   191  CYS191      0.0997
     95  SG        17.9990   44.9100   70.8180 S.3   191  CYS191     -0.0797
     96  N         15.9520   42.1780   70.5830 N.am  192  THR192     -0.1936
     97  CA        14.4940   42.1180   70.5410 C.3   192  THR192      0.2028
     98  C         13.8400   43.2790   69.8100 C.2   192  THR192      0.2642
     99  O         12.7410   43.1310   69.2830 O.2   192  THR192     -0.2714
    100  CB        13.8800   42.1470   71.9760 C.3   192  THR192      0.1808
    101  OG1       14.4500   43.1950   72.7580 O.3   192  THR192     -0.2208
    102  CG2       14.0920   40.8280   72.6830 C.3   192  THR192      0.0379
    103  N         14.4470   44.4510   69.8950 N.am  193  HIS193     -0.1973
    104  CA        13.8180   45.6700   69.3730 C.3   193  HIS193      0.1656
    105  C         14.0190   45.8480   67.8630 C.2   193  HIS193      0.2291
    106  O         13.3180   46.6210   67.2170 O.2   193  HIS193     -0.2864
    107  CB        14.3990   46.9000   70.0740 C.3   193  HIS193      0.0771
    108  CG        13.9910   47.0390   71.5190 C.ar  193  HIS193      0.0820
    109  ND1       14.1760   46.0540   72.4620 N.ar  193  HIS193     -0.2267
    110  CD2       13.4080   48.0810   72.1650 C.ar  193  HIS193      0.1154
    111  CE1       13.7270   46.4890   73.6330 C.ar  193  HIS193      0.1986
    112  NE2       13.2800   47.7320   73.4830 N.ar  193  HIS193     -0.2212
@<TRIPOS>BOND
     1    86    87    1
     2   106   105    2
     3    87    88    1
     4   105   104    1
     5    93    92    2
     6    90    88   am
     7    90    91    1
     8    88    89    2
     9    99    98    2
    10   104   103    1
    11   104   107    1
    12    92    91    1
    13    92    96   am
    14    94    91    1
    15    94    95    1
    16    98   103   am
    17    98    97    1
    18    57    55   am
    19   107   108    1
    20    79    80    1
    21    97    96    1
    22    97   100    1
    23    55    56    2
    24    55    54    1
    25    80    81    1
    26    80    83    1
    27    65    66    1
    28    78    76    1
    29   108   110   ar
    30   108   109   ar
    31    82    81    2
    32   100   102    1
    33   100   101    1
    34    54    51    1
    35   110   112   ar
    36    85    83    1
    37    68    67    2
    38    66    67    1
    39    66    69    1
    40   109   111   ar
    41    75    74    2
    42    76    77    1
    43    76    73    1
    44    83    84    1
    45    74    73    1
    46    51    50    1
    47    51    52    1
    48    73    72    1
    49   112   111   ar
    50    71    69    1
    51    69    70    1
    52    50    46   am
    53    52    53    2
    54    52    58   am
    55    46    45    1
    56    46    47    2
    57    58    59    1
    58    45    44    1
    59    45    48    1
    60    63    62    1
    61    59    62    1
    62    59    60    1
    63     7     6   ar
    64    62    64    1
    65     8     6   ar
    66     6     5    1
    67    48    49    1
    68    41    42    1
    69    41    40    1
    70    60    61    2
    71    43    42    2
    72     5     2    1
    73    40    30   am
    74    14    13    1
    75    25    26    1
    76    25    22    1
    77     2     1    1
    78     2     3    1
    79    20    19    1
    80     9     3   am
    81     9    10    1
    82    30    31    2
    83    30    29    1
    84    26    27    1
    85    13    10    1
    86     3     4    2
    87    22    23    1
    88    22    21    1
    89    28    29    1
    90    28    23   am
    91    32    29    1
    92    32    33    1
    93    10    11    1
    94    11    12    2
    95    23    24    2
    96    27    21    1
    97    21    17   am
    98    19    16    1
    99    35    33   ar
   100    35    37   ar
   101    33    34   ar
   102    17    16    1
   103    17    18    2
   104    16    15    1
   105    37    38   ar
   106    34    36   ar
   107    38    36   ar
   108    38    39    1
