@<TRIPOS>MOLECULE
tmp/2vvvA00.pdb
 194 192 0 0 0
SMALL
GASTEIGER

@<TRIPOS>ATOM
      1  N          4.3170    7.3860   15.9360 N.3    42  HIS42      -0.1241
      2  CA         3.4410    8.5600   15.8410 C.3    42  HIS42       0.1621
      3  C          4.1290    9.8620   16.2520 C.2    42  HIS42       0.2264
      4  O          3.7420   10.9270   15.7740 O.2    42  HIS42      -0.2867
      5  CB         2.1200    8.3740   16.5910 C.3    42  HIS42       0.0745
      6  CG         2.1860    8.7160   18.0510 C.ar   42  HIS42       0.0817
      7  ND1        2.3370    7.7580   19.0430 N.ar   42  HIS42      -0.2268
      8  CD2        2.1300    9.9100   18.6860 C.ar   42  HIS42       0.1154
      9  CE1        2.3450    8.3540   20.2210 C.ar   42  HIS42       0.1986
     10  NE2        2.2270    9.6610   20.0360 N.ar   42  HIS42      -0.2212
     11  N         -1.5210    6.2020   11.0830 N.3    82  LYS82      -0.1231
     12  CA        -2.2120    7.0680   12.0170 C.3    82  LYS82       0.1693
     13  C         -3.6940    6.7150   12.1570 C.2    82  LYS82       0.2592
     14  O         -4.3450    7.1040   13.1300 O.2    82  LYS82      -0.2718
     15  CB        -2.0280    8.5240   11.5930 C.3    82  LYS82       0.0285
     16  CG        -2.4300    9.5080   12.6560 C.3    82  LYS82       0.0035
     17  CD        -2.1490   10.9350   12.2210 C.3    82  LYS82       0.0206
     18  CE        -0.7810   11.3810   12.6900 C.3    82  LYS82       0.1093
     19  NZ        -0.4920   12.7870   12.2550 N.3    82  LYS82      -0.1314
     20  N         -4.2260    5.9530   11.2030 N.am   83  GLU83      -0.1966
     21  CA        -5.6450    5.6110   11.2280 C.3    83  GLU83       0.1733
     22  C         -5.9750    4.5460   12.2600 C.2    83  GLU83       0.2617
     23  O         -7.1040    4.4860   12.7540 O.2    83  GLU83      -0.2715
     24  CB        -6.1330    5.1700    9.8370 C.3    83  GLU83       0.0429
     25  CG        -6.2850    6.3260    8.8410 C.3    83  GLU83       0.1163
     26  CD        -4.9550    6.9610    8.4520 C.2    83  GLU83       0.3649
     27  OE1       -4.0020    6.2100    8.1510 O.co2  83  GLU83      -0.2457
     28  OE2       -4.8630    8.2130    8.4440 O.co2  83  GLU83      -0.2457
     29  N         -4.9770    3.7240   12.5940 N.am   84  THR84      -0.1937
     30  CA        -5.1450    2.5910   13.4990 C.3    84  THR84       0.2028
     31  C         -4.2630    2.7210   14.7390 C.2    84  THR84       0.2642
     32  O         -4.5420    2.1040   15.7800 O.2    84  THR84      -0.2714
     33  CB        -4.7380    1.2970   12.8430 C.3    84  THR84       0.1808
     34  OG1       -3.3560    1.3850   12.4610 O.3    84  THR84      -0.2208
     35  CG2       -5.5980    1.0320   11.6010 C.3    84  THR84       0.0379
     36  N         -3.2050    3.5160   14.6100 N.am   85  TYR85      -0.1973
     37  CA        -2.1630    3.6200   15.6660 C.3    85  TYR85       0.1639
     38  C         -1.4900    2.2960   15.9540 C.2    85  TYR85       0.2290
     39  O         -0.7160    2.1400   16.9380 O.2    85  TYR85      -0.2864
     40  CB        -2.7170    4.2670   16.9320 C.3    85  TYR85       0.0560
     41  CG        -2.3550    5.7150   17.0210 C.ar   85  TYR85      -0.0198
     42  CD1       -2.8460    6.6270   16.1010 C.ar   85  TYR85      -0.0009
     43  CD2       -1.4970    6.1690   18.0050 C.ar   85  TYR85      -0.0009
     44  CE1       -2.5060    7.9490   16.1710 C.ar   85  TYR85       0.0417
     45  CE2       -1.1610    7.5070   18.0970 C.ar   85  TYR85       0.0417
     46  CZ        -1.6630    8.3770   17.1660 C.ar   85  TYR85       0.1957
     47  OH        -1.3210    9.6890   17.2340 O.3    85  TYR85      -0.2866
     48  N         -4.7860   15.9880   32.2620 N.3   135  GLU135     -0.1245
     49  CA        -5.1970   15.9530   30.8690 C.3   135  GLU135      0.1567
     50  C         -5.0080   17.2680   30.0940 C.2   135  GLU135      0.2260
     51  O         -4.3860   17.2930   29.0240 O.2   135  GLU135     -0.2867
     52  CB        -6.6500   15.4930   30.7610 C.3   135  GLU135      0.0388
     53  CG        -7.0630   15.3190   29.3210 C.3   135  GLU135      0.1160
     54  CD        -8.4060   14.6580   29.1540 C.2   135  GLU135      0.3649
     55  OE1       -8.6790   13.6210   29.8080 O.co2 135  GLU135     -0.2457
     56  OE2       -9.1930   15.1650   28.3270 O.co2 135  GLU135     -0.2457
     57  N        -11.7510    2.6390   20.6140 N.3   162  PHE162     -0.1227
     58  CA       -10.9550    2.3380   19.4240 C.3   162  PHE162      0.1736
     59  C        -10.4380    0.9140   19.4990 C.2   162  PHE162      0.2595
     60  O        -10.3840    0.3220   20.5830 O.2   162  PHE162     -0.2718
     61  CB        -9.7750    3.3010   19.3100 C.3   162  PHE162      0.0547
     62  CG       -10.1830    4.7460   19.2240 C.ar  162  PHE162     -0.0202
     63  CD1      -10.3790    5.3570   17.9900 C.ar  162  PHE162     -0.0042
     64  CD2      -10.4050    5.4950   20.3870 C.ar  162  PHE162     -0.0042
     65  CE1      -10.7750    6.6780   17.9270 C.ar  162  PHE162     -0.0003
     66  CE2      -10.7870    6.8060   20.3210 C.ar  162  PHE162     -0.0003
     67  CZ       -10.9830    7.4010   19.0740 C.ar  162  PHE162     -0.0000
     68  N        -10.0630    0.3530   18.3530 N.am  163  ILE163     -0.1980
     69  CA        -9.6600   -1.0390   18.3210 C.3   163  ILE163      0.1595
     70  C         -8.3040   -1.2140   18.9760 C.2   163  ILE163      0.2287
     71  O         -7.3410   -0.5470   18.6160 O.2   163  ILE163     -0.2864
     72  CB        -9.5850   -1.5800   16.9060 C.3   163  ILE163      0.0276
     73  CG1      -10.9720   -1.5470   16.2790 C.3   163  ILE163      0.0022
     74  CG2       -9.0480   -2.9880   16.9040 C.3   163  ILE163      0.0022
     75  CD1      -10.9420   -1.8410   14.7740 C.3   163  ILE163      0.0001
     76  N         -1.9980    8.2500   35.5610 N.3   179  ASP179     -0.1225
     77  CA        -1.8730    7.7520   34.1800 C.3   179  ASP179      0.1805
     78  C         -0.6800    8.4310   33.5250 C.2   179  ASP179      0.2598
     79  O         -0.1930    9.4140   34.0240 O.2   179  ASP179     -0.2718
     80  CB        -3.1370    8.1790   33.4120 C.3   179  ASP179      0.1424
     81  CG        -3.3540    7.4160   32.0870 C.2   179  ASP179      0.3668
     82  OD1       -2.5180    6.5830   31.6950 O.co2 179  ASP179     -0.2456
     83  OD2       -4.4050    7.6590   31.4380 O.co2 179  ASP179     -0.2456
     84  N         -0.2340    7.9510   32.3680 N.am  180  ALA180     -0.1966
     85  CA         0.6130    8.8040   31.5250 C.3   180  ALA180      0.1728
     86  C         -0.3070    9.7870   30.8240 C.2   180  ALA180      0.2616
     87  O         -1.5130    9.7470   31.0180 O.2   180  ALA180     -0.2715
     88  CB         1.3310    7.9790   30.4950 C.3   180  ALA180      0.0334
     89  N          0.2660   10.6180   29.9590 N.am  181  CYS181     -0.1954
     90  CA        -0.4970   11.6220   29.2580 C.3   181  CYS181      0.1843
     91  C          0.3100   12.1150   28.0470 C.2   181  CYS181      0.2625
     92  O          1.4390   11.6820   27.8110 O.2   181  CYS181     -0.2714
     93  CB        -0.7890   12.7590   30.2490 C.3   181  CYS181      0.0997
     94  SG        -2.1610   13.8890   29.8510 S.3   181  CYS181     -0.0797
     95  N         -0.2620   13.0370   27.2880 N.am  182  GLN182     -0.1977
     96  CA         0.4460   13.5950   26.1310 C.3   182  GLN182      0.1601
     97  C          1.7600   14.2190   26.5930 C.2   182  GLN182      0.2287
     98  O          1.8000   14.8580   27.6370 O.2   182  GLN182     -0.2864
     99  CB        -0.4330   14.6240   25.4110 C.3   182  GLN182      0.0394
    100  CG        -1.8520   14.1250   25.0710 C.3   182  GLN182      0.0908
    101  CD        -2.5410   15.0420   24.0720 C.2   182  GLN182      0.2608
    102  OE1       -3.6050   15.5980   24.3480 O.2   182  GLN182     -0.2717
    103  NE2       -1.9040   15.2380   22.9110 N.am  182  GLN182     -0.0878
    104  N          4.2490   10.3440   25.5970 N.3   185  SER185     -0.1217
    105  CA         4.2110    9.5050   24.3890 C.3   185  SER185      0.1889
    106  C          5.6040    9.1710   23.8610 C.2   185  SER185      0.2288
    107  O          6.4650   10.0320   23.8410 O.2   185  SER185     -0.2866
    108  CB         3.3870   10.2370   23.3130 C.3   185  SER185      0.2089
    109  OG         2.4040   11.0610   23.9620 O.3   185  SER185     -0.2183
    110  N          4.8750    4.2390   25.5070 N.3   203  VAL203     -0.1231
    111  CA         3.6860    5.0700   25.7310 C.3   203  VAL203      0.1692
    112  C          3.0940    5.4030   24.3490 C.2   203  VAL203      0.2593
    113  O          3.7750    6.0220   23.5100 O.2   203  VAL203     -0.2718
    114  CB         4.0480    6.3640   26.5150 C.3   203  VAL203      0.0266
    115  CG1        2.8080    7.2460   26.7050 C.3   203  VAL203      0.0020
    116  CG2        4.6410    6.0100   27.9020 C.3   203  VAL203      0.0020
    117  N          1.8550    4.9720   24.0910 N.am  204  SER204     -0.1938
    118  CA         1.3000    5.1490   22.7440 C.3   204  SER204      0.2055
    119  C          0.1490    6.1510   22.6070 C.2   204  SER204      0.2643
    120  O          0.2740    7.1650   21.8770 O.2   204  SER204     -0.2714
    121  CB         0.9650    3.7710   22.1330 C.3   204  SER204      0.2130
    122  OG         0.5790    3.9030   20.7570 O.3   204  SER204     -0.2179
    123  N         -0.9740    5.8810   23.2730 N.am  205  TRP205     -0.1959
    124  CA        -2.1290    6.7760   23.2070 C.3   205  TRP205      0.1771
    125  C         -3.0910    6.5480   24.3370 C.2   205  TRP205      0.2620
    126  O         -2.9640    5.5960   25.1090 O.2   205  TRP205     -0.2715
    127  CB        -2.8720    6.6420   21.8680 C.3   205  TRP205      0.0590
    128  CG        -3.3720    5.2530   21.5560 C.ar  205  TRP205      0.0006
    129  CD1       -2.6540    4.2150   21.0130 C.ar  205  TRP205      0.0946
    130  CD2       -4.7030    4.7620   21.7430 C.ar  205  TRP205      0.0152
    131  NE1       -3.4580    3.1040   20.8800 N.ar  205  TRP205     -0.2442
    132  CE2       -4.7190    3.4150   21.3150 C.ar  205  TRP205      0.0810
    133  CE3       -5.8780    5.3200   22.2610 C.ar  205  TRP205      0.0012
    134  CZ2       -5.8750    2.6180   21.3690 C.ar  205  TRP205      0.0191
    135  CZ3       -7.0380    4.5370   22.2970 C.ar  205  TRP205      0.0001
    136  CH2       -7.0200    3.1950   21.8530 C.ar  205  TRP205      0.0015
    137  N         -4.0510    7.4580   24.4500 N.am  206  GLY206     -0.1940
    138  CA        -5.1120    7.2930   25.3970 C.3   206  GLY206      0.2014
    139  C         -6.2310    8.2310   25.0030 C.2   206  GLY206      0.2639
    140  O         -5.9960    9.2220   24.3160 O.2   206  GLY206     -0.2714
    141  N         -7.4290    7.9020   25.4520 N.am  207  GLU207     -0.1963
    142  CA        -8.5780    8.7760   25.3060 C.3   207  GLU207      0.1733
    143  C         -8.5760    9.7140   26.4980 C.2   207  GLU207      0.2617
    144  O         -9.1820    9.4290   27.5300 O.2   207  GLU207     -0.2715
    145  CB        -9.8560    7.9290   25.2510 C.3   207  GLU207      0.0429
    146  CG        -9.8410    6.9130   24.1210 C.3   207  GLU207      0.1163
    147  CD       -11.0970    6.0710   24.0610 C.2   207  GLU207      0.3649
    148  OE1      -12.2120    6.6510   24.0740 O.co2 207  GLU207     -0.2457
    149  OE2      -10.9890    4.8350   23.9950 O.co2 207  GLU207     -0.2457
    150  N         -7.8440   10.8150   26.3740 N.am  208  GLY208     -0.1940
    151  CA        -7.6540   11.7230   27.4850 C.3   208  GLY208      0.2014
    152  C         -6.5180   11.2000   28.3420 C.2   208  GLY208      0.2639
    153  O         -5.6950   10.3970   27.8820 O.2   208  GLY208     -0.2714
    154  N         -6.4870   11.6420   29.5910 N.am  209  CYS209     -0.1967
    155  CA        -5.5340   11.1190   30.5650 C.3   209  CYS209      0.1712
    156  C         -6.2280   10.8990   31.8990 C.2   209  CYS209      0.2296
    157  O         -6.9280   11.7860   32.4120 O.2   209  CYS209     -0.2864
    158  CB        -4.3640   12.0850   30.7710 C.3   209  CYS209      0.0983
    159  SG        -3.6570   12.6340   29.2530 S.3   209  CYS209     -0.0798
    160  N         -8.7870    9.3530   32.6190 N.3   211  ARG211     -0.1245
    161  CA       -10.2430    9.3100   32.6190 C.3   211  ARG211      0.1563
    162  C        -10.8010    8.0760   33.2980 C.2   211  ARG211      0.2260
    163  O        -10.2180    6.9810   33.2430 O.2   211  ARG211     -0.2867
    164  CB       -10.7690    9.3640   31.1920 C.3   211  ARG211      0.0307
    165  CG       -10.7950   10.7460   30.6500 C.3   211  ARG211      0.0489
    166  CD       -11.4630   10.8040   29.2740 C.3   211  ARG211      0.2205
    167  NE       -10.9490   11.9660   28.5590 N.pl3 211  ARG211     -0.0865
    168  CZ       -11.1590   12.2120   27.2690 C.cat 211  ARG211      0.5346
    169  NH1      -11.8900   11.3820   26.5330 N.pl3 211  ARG211      0.1354
    170  NH2      -10.6220   13.2870   26.7140 N.pl3 211  ARG211      0.1354
    171  N         -4.3100    3.6330   29.9670 N.3   216  GLY216     -0.1210
    172  CA        -3.1920    4.0590   29.1270 C.3   216  GLY216      0.1956
    173  C         -2.9060    2.9630   28.1350 C.2   216  GLY216      0.2612
    174  O         -2.8930    1.7860   28.5120 O.2   216  GLY216     -0.2717
    175  N         -2.7360    3.3150   26.8560 N.am  217  ILE217     -0.1965
    176  CA        -2.4520    2.2960   25.8410 C.3   217  ILE217      0.1727
    177  C         -0.9890    2.3490   25.3850 C.2   217  ILE217      0.2616
    178  O         -0.4700    3.4260   25.0600 O.2   217  ILE217     -0.2715
    179  CB        -3.3490    2.4410   24.5830 C.3   217  ILE217      0.0290
    180  CG1       -4.7900    2.8020   24.9680 C.3   217  ILE217      0.0022
    181  CG2       -3.3100    1.1530   23.7410 C.3   217  ILE217      0.0023
    182  CD1       -5.5570    1.6990   25.6440 C.3   217  ILE217      0.0001
    183  N         -0.3640    1.1720   25.3280 N.am  218  TYR218     -0.1974
    184  CA         1.0820    1.0510   25.1560 C.3   218  TYR218      0.1639
    185  C          1.3740    0.0990   24.0180 C.2   218  TYR218      0.2290
    186  O          0.6600   -0.9080   23.8250 O.2   218  TYR218     -0.2864
    187  CB         1.7280    0.4710   26.4210 C.3   218  TYR218      0.0560
    188  CG         1.6340    1.3740   27.6210 C.ar  218  TYR218     -0.0198
    189  CD1        2.6830    2.2230   27.9620 C.ar  218  TYR218     -0.0009
    190  CD2        0.4580    1.4240   28.3880 C.ar  218  TYR218     -0.0009
    191  CE1        2.6110    3.0720   29.0800 C.ar  218  TYR218      0.0417
    192  CE2        0.3560    2.2890   29.4850 C.ar  218  TYR218      0.0417
    193  CZ         1.4530    3.1100   29.8230 C.ar  218  TYR218      0.1957
    194  OH         1.3970    3.9730   30.9050 O.3   218  TYR218     -0.2866
@<TRIPOS>BOND
     1    27    26   ar
     2    28    26   ar
     3    26    25    1
     4    25    24    1
     5    24    21    1
     6    11    12    1
     7    20    21    1
     8    20    13   am
     9    21    22    1
    10    15    12    1
    11    15    16    1
    12    35    33    1
    13    12    13    1
    14    13    14    2
    15    17    16    1
    16    17    18    1
    17    19    18    1
    18    22    29   am
    19    22    23    2
    20    34    33    1
    21    29    30    1
    22    33    30    1
    23    30    31    1
    24    36    31   am
    25    36    37    1
    26    31    32    2
    27    75    73    1
    28    37    38    1
    29    37    40    1
    30     4     3    2
    31     2     1    1
    32     2     3    1
    33     2     5    1
    34    38    39    2
    35    42    44   ar
    36    42    41   ar
    37    44    46   ar
    38    73    72    1
    39     5     6    1
    40    74    72    1
    41    72    69    1
    42    40    41    1
    43    41    43   ar
    44    46    47    1
    45    46    45   ar
    46    65    63   ar
    47    65    67   ar
    48    63    62   ar
    49    43    45   ar
    50     6     8   ar
    51     6     7   ar
    52    69    68    1
    53    69    70    1
    54    68    59   am
    55    71    70    2
    56     8    10   ar
    57     7     9   ar
    58    67    66   ar
    59    62    61    1
    60    62    64   ar
    61    61    58    1
    62    58    59    1
    63    58    57    1
    64    59    60    2
    65    10     9   ar
    66    66    64   ar
    67   122   121    1
    68   131   129   ar
    69   131   132   ar
    70   129   128   ar
    71   132   134   ar
    72   132   130   ar
    73   134   136   ar
    74   128   130   ar
    75   128   127    1
    76   130   133   ar
    77   136   135   ar
    78   127   124    1
    79   120   119    2
    80   121   118    1
    81   133   135   ar
    82   119   118    1
    83   119   123   am
    84   118   117    1
    85   103   101   am
    86   124   123    1
    87   124   125    1
    88   108   109    1
    89   108   105    1
    90   113   112    2
    91   181   179    1
    92   186   185    2
    93   107   106    2
    94   106   105    1
    95   149   147   ar
    96   185   184    1
    97   147   148   ar
    98   147   146    1
    99   101   102    2
   100   101   100    1
   101   117   112   am
   102   146   145    1
   103   140   139    2
   104   125   137   am
   105   125   126    2
   106   112   111    1
   107   105   104    1
   108   137   138    1
   109   179   180    1
   110   179   176    1
   111   180   182    1
   112   139   138    1
   113   139   141   am
   114   178   177    2
   115   100    99    1
   116   184   183    1
   117   184   187    1
   118   145   142    1
   119   142   141    1
   120   142   143    1
   121   183   177   am
   122   177   176    1
   123    99    96    1
   124   110   111    1
   125   111   114    1
   126   176   175    1
   127    96    97    1
   128    96    95    1
   129   150   143   am
   130   150   151    1
   131   187   188    1
   132   143   144    2
   133   114   115    1
   134   114   116    1
   135   169   168    1
   136    97    98    2
   137   170   168    1
   138   175   173   am
   139   168   167    2
   140    95    91   am
   141   151   152    1
   142   188   189   ar
   143   188   190   ar
   144    92    91    2
   145   153   152    2
   146   189   191   ar
   147    91    90    1
   148   173   174    2
   149   173   172    1
   150    56    54   ar
   151   152   154   am
   152   190   192   ar
   153   167   166    1
   154    51    50    2
   155   191   193   ar
   156   172   171    1
   157    54    53    1
   158    54    55   ar
   159   159    94    1
   160   159   158    1
   161    90    89    1
   162    90    93    1
   163   166   165    1
   164    53    52    1
   165   192   193   ar
   166   154   155    1
   167   193   194    1
   168    94    93    1
   169    89    86   am
   170    50    49    1
   171    88    85    1
   172   155   158    1
   173   155   156    1
   174   165   164    1
   175    52    49    1
   176    86    87    2
   177    86    85    1
   178    49    48    1
   179   164   161    1
   180    83    81   ar
   181    85    84    1
   182    82    81   ar
   183   156   157    2
   184    81    80    1
   185    84    78   am
   186   161   160    1
   187   161   162    1
   188   163   162    2
   189    80    77    1
   190    78    79    2
   191    78    77    1
   192    77    76    1
