@<TRIPOS>MOLECULE
tmp/2vw2A01.pdb
 88 83 0 0 0
SMALL
GASTEIGER

@<TRIPOS>ATOM
      1  N         -5.4340   57.1170   28.4040 N.3   212  TYR212     -0.1227
      2  CA        -6.6880   56.3760   28.5170 C.3   212  TYR212      0.1736
      3  C         -6.3680   54.9040   28.7460 C.2   212  TYR212      0.2596
      4  O         -5.5360   54.3240   28.0390 O.2   212  TYR212     -0.2718
      5  CB        -7.5320   56.5380   27.2440 C.3   212  TYR212      0.0548
      6  CG        -8.9970   56.2010   27.4100 C.ar  212  TYR212     -0.0200
      7  CD1       -9.9390   57.2110   27.6460 C.ar  212  TYR212     -0.0009
      8  CD2       -9.4480   54.8810   27.3230 C.ar  212  TYR212     -0.0009
      9  CE1      -11.2930   56.9210   27.7890 C.ar  212  TYR212      0.0417
     10  CE2      -10.8070   54.5750   27.4660 C.ar  212  TYR212      0.0417
     11  CZ       -11.7180   55.6020   27.7060 C.ar  212  TYR212      0.1957
     12  OH       -13.0570   55.3180   27.8540 O.3   212  TYR212     -0.2866
     13  N         -7.0200   54.3070   29.7390 N.am  213  THR213     -0.1953
     14  CA        -6.8170   52.8880   30.0200 C.3   213  THR213      0.1897
     15  C         -7.8310   52.0330   29.2580 C.2   213  THR213      0.2313
     16  O         -9.0400   52.1850   29.4300 O.2   213  THR213     -0.2863
     17  CB        -6.8710   52.6050   31.5310 C.3   213  THR213      0.1794
     18  OG1       -5.8810   53.4140   32.1870 O.3   213  THR213     -0.2208
     19  CG2       -6.5990   51.1170   31.8130 C.3   213  THR213      0.0378
     20  N         -9.6610   48.3470   27.9460 N.3   215  SER215     -0.1217
     21  CA       -10.2040   47.1590   28.6320 C.3   215  SER215      0.1889
     22  C         -9.2470   45.9590   28.6750 C.2   215  SER215      0.2288
     23  O         -9.2880   45.1720   29.6160 O.2   215  SER215     -0.2866
     24  CB       -11.5460   46.7460   28.0270 C.3   215  SER215      0.2089
     25  OG       -11.4270   46.5230   26.6330 O.3   215  SER215     -0.2183
     26  N        -17.1220   50.0790   24.1570 N.3   296  LYS296     -0.1245
     27  CA       -17.4330   48.7430   24.6840 C.3   296  LYS296      0.1561
     28  C        -17.9900   47.7860   23.6340 C.2   296  LYS296      0.2260
     29  O        -17.5240   46.6490   23.5080 O.2   296  LYS296     -0.2867
     30  CB       -18.4460   48.8500   25.8310 C.3   296  LYS296      0.0271
     31  CG       -17.9070   49.4670   27.1070 C.3   296  LYS296      0.0035
     32  CD       -19.0350   50.0520   27.9520 C.3   296  LYS296      0.0206
     33  CE       -18.5110   50.6490   29.2590 C.3   296  LYS296      0.1093
     34  NZ       -17.6720   51.8650   29.0640 N.3   296  LYS296     -0.1314
     35  N        -16.8870   57.2490   28.1270 N.3   459  ALA459     -0.1245
     36  CA       -17.6630   56.0580   27.8320 C.3   459  ALA459      0.1562
     37  C        -18.4830   55.7240   29.0750 C.2   459  ALA459      0.2260
     38  O        -17.9280   55.3310   30.1060 O.2   459  ALA459     -0.2867
     39  CB       -16.7390   54.8940   27.4510 C.3   459  ALA459      0.0290
     40  N        -20.5930   53.9070   31.7710 N.3   461  LYS461     -0.1245
     41  CA       -20.3620   52.5530   32.2810 C.3   461  LYS461      0.1561
     42  C        -21.4770   51.5590   31.9730 C.2   461  LYS461      0.2260
     43  O        -21.2030   50.3940   31.6750 O.2   461  LYS461     -0.2867
     44  CB       -20.0830   52.5790   33.7890 C.3   461  LYS461      0.0271
     45  CG       -18.8620   53.4160   34.1630 C.3   461  LYS461      0.0035
     46  CD       -18.1640   52.9110   35.4140 C.3   461  LYS461      0.0206
     47  CE       -17.0920   53.8910   35.9010 C.3   461  LYS461      0.1093
     48  NZ       -16.5570   54.7780   34.8200 N.3   461  LYS461     -0.1314
     49  N        -11.6430   53.9780   40.5070 N.3   561  SER561     -0.1217
     50  CA       -12.4420   52.7510   40.6230 C.3   561  SER561      0.1889
     51  C        -12.6160   52.2500   42.0590 C.2   561  SER561      0.2288
     52  O        -13.5720   51.5120   42.3530 O.2   561  SER561     -0.2866
     53  CB       -11.8480   51.6350   39.7570 C.3   561  SER561      0.2089
     54  OG       -10.6930   51.0800   40.3640 O.3   561  SER561     -0.2183
     55  N         -6.2440   55.9850   35.6000 N.3   620  GLU620     -0.1231
     56  CA        -6.0720   54.8790   36.5200 C.3   620  GLU620      0.1699
     57  C         -5.4980   53.7030   35.7310 C.2   620  GLU620      0.2592
     58  O         -6.1450   53.1670   34.8240 O.2   620  GLU620     -0.2718
     59  CB        -7.3980   54.4880   37.1760 C.3   620  GLU620      0.0402
     60  CG        -7.2150   53.4710   38.3240 C.3   620  GLU620      0.1161
     61  CD        -8.5150   53.0570   38.9850 C.2   620  GLU620      0.3649
     62  OE1       -9.5630   53.6720   38.6970 O.co2 620  GLU620     -0.2457
     63  OE2       -8.4850   52.1070   39.8040 O.co2 620  GLU620     -0.2457
     64  N         -4.2640   53.3390   36.0580 N.am  621  LEU621     -0.1966
     65  CA        -3.6180   52.1690   35.4730 C.3   621  LEU621      0.1713
     66  C         -4.3560   50.9140   35.9640 C.2   621  LEU621      0.2458
     67  O         -4.9770   50.9520   37.0280 O.2   621  LEU621     -0.2730
     68  CB        -2.1280   52.1450   35.8560 C.3   621  LEU621      0.0310
     69  CG        -1.3020   53.3740   35.4160 C.3   621  LEU621      0.0022
     70  CD1        0.0920   53.3560   36.0110 C.3   621  LEU621      0.0001
     71  CD2       -1.2030   53.4930   33.8910 C.3   621  LEU621      0.0001
     72  N         -4.3330   49.8200   35.1790 N.am  622  PRO622     -0.2727
     73  CA        -5.0360   48.5870   35.5870 C.3   622  PRO622      0.1402
     74  C         -4.7510   48.1050   37.0170 C.2   622  PRO622      0.2269
     75  O         -5.6460   47.5560   37.6590 O.2   622  PRO622     -0.2865
     76  CB        -4.5690   47.5610   34.5490 C.3   622  PRO622      0.0296
     77  CG        -4.3300   48.3820   33.3270 C.3   622  PRO622      0.0237
     78  CD        -3.7200   49.6750   33.8450 C.3   622  PRO622      0.0939
     79  N         -4.3630   49.9340   39.5960 N.3   624  HIS624     -0.1241
     80  CA        -4.8560   51.0050   40.4930 C.3   624  HIS624      0.1621
     81  C         -3.8510   52.1010   40.8570 C.2   624  HIS624      0.2264
     82  O         -4.1530   52.9810   41.6730 O.2   624  HIS624     -0.2867
     83  CB        -5.5390   50.4270   41.7460 C.3   624  HIS624      0.0745
     84  CG        -6.5600   49.3810   41.4290 C.ar  624  HIS624      0.0817
     85  ND1       -7.6370   49.6180   40.6030 N.ar  624  HIS624     -0.2268
     86  CD2       -6.6460   48.0810   41.7990 C.ar  624  HIS624      0.1154
     87  CE1       -8.3510   48.5120   40.4880 C.ar  624  HIS624      0.1986
     88  NE2       -7.7720   47.5660   41.2060 N.ar  624  HIS624     -0.2212
@<TRIPOS>BOND
     1    29    28    2
     2    28    27    1
     3    26    27    1
     4    27    30    1
     5    30    31    1
     6    25    24    1
     7    31    32    1
     8     5     6    1
     9     5     2    1
    10     8     6   ar
    11     8    10   ar
    12     6     7   ar
    13    39    36    1
    14    10    11   ar
    15     7     9   ar
    16    11     9   ar
    17    11    12    1
    18    36    35    1
    19    36    37    1
    20    20    21    1
    21    32    33    1
    22    24    21    1
    23     4     3    2
    24     1     2    1
    25     2     3    1
    26    21    22    1
    27    22    23    2
    28     3    13   am
    29    34    33    1
    30    37    38    2
    31    15    16    2
    32    15    14    1
    33    13    14    1
    34    14    17    1
    35    17    19    1
    36    17    18    1
    37    43    42    2
    38    40    41    1
    39    42    41    1
    40    41    44    1
    41    77    78    1
    42    77    76    1
    43    44    45    1
    44    78    72    1
    45    71    69    1
    46    45    46    1
    47    76    73    1
    48    48    47    1
    49    58    57    2
    50    72    73    1
    51    72    66   am
    52    46    47    1
    53    69    68    1
    54    69    70    1
    55    65    68    1
    56    65    66    1
    57    65    64    1
    58    73    74    1
    59    55    56    1
    60    57    64   am
    61    57    56    1
    62    66    67    2
    63    56    59    1
    64    74    75    2
    65    59    60    1
    66    60    61    1
    67    62    61   ar
    68    61    63   ar
    69    79    80    1
    70    53    54    1
    71    53    50    1
    72    87    85   ar
    73    87    88   ar
    74    80    81    1
    75    80    83    1
    76    49    50    1
    77    85    84   ar
    78    50    51    1
    79    81    82    2
    80    88    86   ar
    81    84    83    1
    82    84    86   ar
    83    51    52    2
