@<TRIPOS>MOLECULE
tmp/2vw2A00.pdb
 172 162 0 0 0
SMALL
GASTEIGER

@<TRIPOS>ATOM
      1  N          3.1980   68.7220   22.9190 N.3   207  ARG207     -0.1231
      2  CA         2.2630   69.3830   23.8180 C.3   207  ARG207      0.1694
      3  C          0.9410   68.6200   23.7990 C.2   207  ARG207      0.2591
      4  O          0.6920   67.8040   22.9010 O.2   207  ARG207     -0.2718
      5  CB         2.0200   70.8410   23.3980 C.3   207  ARG207      0.0321
      6  CG         3.0660   71.8600   23.8770 C.3   207  ARG207      0.0489
      7  CD         2.4470   73.2610   24.0150 C.3   207  ARG207      0.2205
      8  NE         1.3510   73.2550   24.9870 N.pl3 207  ARG207     -0.0865
      9  CZ         0.4740   74.2460   25.1580 C.cat 207  ARG207      0.5346
     10  NH1        0.5570   75.3650   24.4420 N.pl3 207  ARG207      0.1354
     11  NH2       -0.4880   74.1210   26.0630 N.pl3 207  ARG207      0.1354
     12  N          0.0950   68.8930   24.7890 N.am  208  ILE208     -0.1980
     13  CA        -1.2770   68.3520   24.8320 C.3   208  ILE208      0.1595
     14  C         -1.3050   66.8140   24.9710 C.2   208  ILE208      0.2287
     15  O         -1.8060   66.1170   24.0790 O.2   208  ILE208     -0.2864
     16  CB        -2.1570   68.8330   23.6270 C.3   208  ILE208      0.0276
     17  CG1       -1.7650   70.2480   23.1500 C.3   208  ILE208      0.0022
     18  CG2       -3.6350   68.7600   23.9860 C.3   208  ILE208      0.0022
     19  CD1       -1.8610   71.3570   24.2120 C.3   208  ILE208      0.0001
     20  N          4.5920   68.3720   17.6840 N.3   226  ARG226     -0.1245
     21  CA         4.7370   69.7430   17.1640 C.3   226  ARG226      0.1563
     22  C          6.1420   70.0240   16.6350 C.2   226  ARG226      0.2260
     23  O          7.1300   69.9990   17.3860 O.2   226  ARG226     -0.2867
     24  CB         4.3440   70.7910   18.2190 C.3   226  ARG226      0.0307
     25  CG         2.9500   70.5850   18.8210 C.3   226  ARG226      0.0489
     26  CD         2.5310   71.7540   19.7160 C.3   226  ARG226      0.2205
     27  NE         1.0860   71.7360   19.9570 N.pl3 226  ARG226     -0.0865
     28  CZ         0.3720   72.7290   20.4920 C.cat 226  ARG226      0.5346
     29  NH1        0.9560   73.8650   20.8770 N.pl3 226  ARG226      0.1354
     30  NH2       -0.9450   72.5770   20.6480 N.pl3 226  ARG226      0.1354
     31  N          1.0470   76.6750   18.8670 N.3   232  ASP232     -0.1239
     32  CA        -0.2460   76.2090   18.3500 C.3   232  ASP232      0.1674
     33  C         -0.2580   76.4570   16.8500 C.2   232  ASP232      0.2266
     34  O          0.5140   77.2810   16.3550 O.2   232  ASP232     -0.2867
     35  CB        -1.3990   77.0400   18.9390 C.3   232  ASP232      0.1410
     36  CG        -1.8090   76.6150   20.3470 C.2   232  ASP232      0.3668
     37  OD1       -2.7020   77.2940   20.9020 O.co2 232  ASP232     -0.2456
     38  OD2       -1.2610   75.6330   20.9060 O.co2 232  ASP232     -0.2456
     39  N         -4.4760   69.4130   15.8500 N.3   288  ILE288     -0.1231
     40  CA        -4.2410   69.9870   17.1680 C.3   288  ILE288      0.1692
     41  C         -5.3300   69.5520   18.1410 C.2   288  ILE288      0.2592
     42  O         -6.4940   69.4620   17.7660 O.2   288  ILE288     -0.2718
     43  CB        -4.0800   71.5590   17.0880 C.3   288  ILE288      0.0266
     44  CG1       -3.6670   72.1580   18.4420 C.3   288  ILE288      0.0019
     45  CG2       -5.3280   72.2400   16.4910 C.3   288  ILE288      0.0020
     46  CD1       -3.1380   73.5730   18.3390 C.3   288  ILE288      0.0001
     47  N         -4.9280   69.2710   19.3800 N.am  289  ASP289     -0.1974
     48  CA        -5.8390   68.8830   20.4730 C.3   289  ASP289      0.1709
     49  C         -6.5650   67.5670   20.2190 C.2   289  ASP289      0.2293
     50  O         -7.6600   67.5470   19.6580 O.2   289  ASP289     -0.2864
     51  CB        -6.8680   69.9830   20.7740 C.3   289  ASP289      0.1436
     52  CG        -6.2580   71.2000   21.4400 C.2   289  ASP289      0.3671
     53  OD1       -5.0800   71.1610   21.8470 O.co2 289  ASP289     -0.2456
     54  OD2       -6.9800   72.2080   21.5640 O.co2 289  ASP289     -0.2456
     55  N         -8.7610   68.2970   16.2820 N.3   306  ASP306     -0.1239
     56  CA        -9.0390   69.4090   15.3610 C.3   306  ASP306      0.1674
     57  C         -8.1550   69.2650   14.1160 C.2   306  ASP306      0.2266
     58  O         -7.0430   68.7270   14.1860 O.2   306  ASP306     -0.2867
     59  CB        -8.7650   70.8000   15.9700 C.3   306  ASP306      0.1410
     60  CG        -9.4490   71.0450   17.3150 C.2   306  ASP306      0.3668
     61  OD1      -10.4970   70.4420   17.6410 O.co2 306  ASP306     -0.2456
     62  OD2       -8.9270   71.9190   18.0460 O.co2 306  ASP306     -0.2456
     63  N         -6.6250   71.6520   10.9050 N.3   308  MET308     -0.1245
     64  CA        -6.4030   73.0020   10.4090 C.3   308  MET308      0.1570
     65  C         -5.7820   72.9200    9.0180 C.2   308  MET308      0.2261
     66  O         -4.7340   72.2750    8.8400 O.2   308  MET308     -0.2867
     67  CB        -5.4770   73.7870   11.3520 C.3   308  MET308      0.0387
     68  CG        -5.9660   73.8960   12.8000 C.3   308  MET308      0.0595
     69  SD        -7.2390   75.1620   13.0080 S.3   308  MET308     -0.1393
     70  CE        -7.3750   75.2760   14.7910 C.3   308  MET308      0.0692
     71  N         -6.3830   79.0470   15.0940 N.3   314  ASN314     -0.1240
     72  CA        -7.4690   79.7850   15.7400 C.3   314  ASN314      0.1653
     73  C         -7.4600   81.2780   15.3880 C.2   314  ASN314      0.2266
     74  O         -8.5200   81.8780   15.1550 O.2   314  ASN314     -0.2867
     75  CB        -7.3990   79.5960   17.2630 C.3   314  ASN314      0.1155
     76  CG        -8.2180   80.6250   18.0200 C.2   314  ASN314      0.2627
     77  OD1       -7.6660   81.5430   18.6300 O.2   314  ASN314     -0.2716
     78  ND2       -9.5410   80.4950   17.9620 N.am  314  ASN314     -0.0877
     79  N        -14.3210   73.4720   19.0510 N.3   451  TYR451     -0.1241
     80  CA       -12.9640   73.0600   19.3760 C.3   451  TYR451      0.1605
     81  C        -12.9900   71.8870   20.3370 C.2   451  TYR451      0.2264
     82  O        -13.5880   71.9720   21.4100 O.2   451  TYR451     -0.2867
     83  CB       -12.1750   74.2240   19.9770 C.3   451  TYR451      0.0534
     84  CG       -11.7930   75.2900   18.9760 C.ar  451  TYR451     -0.0201
     85  CD1      -10.8960   75.0100   17.9460 C.ar  451  TYR451     -0.0009
     86  CD2      -12.3140   76.5780   19.0640 C.ar  451  TYR451     -0.0009
     87  CE1      -10.5300   75.9810   17.0240 C.ar  451  TYR451      0.0417
     88  CE2      -11.9490   77.5680   18.1390 C.ar  451  TYR451      0.0417
     89  CZ       -11.0550   77.2540   17.1220 C.ar  451  TYR451      0.1957
     90  OH       -10.6760   78.2100   16.1970 O.3   451  TYR451     -0.2866
     91  N        -15.8730   72.8180   22.8350 N.3   471  TYR471     -0.1241
     92  CA       -16.2960   74.1600   23.2190 C.3   471  TYR471      0.1605
     93  C        -16.3370   75.1270   22.0350 C.2   471  TYR471      0.2264
     94  O        -15.6510   74.9450   21.0210 O.2   471  TYR471     -0.2867
     95  CB       -15.4100   74.7180   24.3440 C.3   471  TYR471      0.0534
     96  CG       -13.9690   74.9780   23.9370 C.ar  471  TYR471     -0.0201
     97  CD1      -13.5660   76.2320   23.4750 C.ar  471  TYR471     -0.0009
     98  CD2      -13.0090   73.9680   24.0140 C.ar  471  TYR471     -0.0009
     99  CE1      -12.2440   76.4750   23.1030 C.ar  471  TYR471      0.0417
    100  CE2      -11.6840   74.2020   23.6460 C.ar  471  TYR471      0.0417
    101  CZ       -11.3160   75.4580   23.1870 C.ar  471  TYR471      0.1957
    102  OH       -10.0180   75.6870   22.8220 O.3   471  TYR471     -0.2866
    103  N        -11.5900   79.7220   26.1840 N.3   501  THR501     -0.1218
    104  CA       -11.0000   78.4100   25.9370 C.3   501  THR501      0.1862
    105  C        -11.4910   77.4980   27.0640 C.2   501  THR501      0.2287
    106  O        -10.8090   77.3050   28.0730 O.2   501  THR501     -0.2866
    107  CB        -9.4480   78.4970   25.8690 C.3   501  THR501      0.1770
    108  OG1       -9.0720   79.4270   24.8410 O.3   501  THR501     -0.2211
    109  CG2       -8.8280   77.1350   25.5590 C.3   501  THR501      0.0375
    110  N        -11.8440   74.3470   27.9690 N.3   503  GLU503     -0.1245
    111  CA       -11.4190   72.9510   27.9030 C.3   503  GLU503      0.1567
    112  C        -12.0540   72.1940   29.0450 C.2   503  GLU503      0.2260
    113  O        -11.8710   72.5520   30.2140 O.2   503  GLU503     -0.2867
    114  CB        -9.8890   72.8570   27.9380 C.3   503  GLU503      0.0388
    115  CG        -9.2490   73.3470   26.6290 C.3   503  GLU503      0.1160
    116  CD        -7.8230   73.8680   26.7920 C.2   503  GLU503      0.3649
    117  OE1       -7.1170   73.9820   25.7640 O.co2 503  GLU503     -0.2457
    118  OE2       -7.4000   74.1590   27.9290 O.co2 503  GLU503     -0.2457
    119  N        -12.0250   74.6520   32.1860 N.3   519  ARG519     -0.1245
    120  CA       -11.2110   75.8540   32.2190 C.3   519  ARG519      0.1563
    121  C        -12.1030   77.0620   31.9560 C.2   519  ARG519      0.2260
    122  O        -13.0210   76.9770   31.1550 O.2   519  ARG519     -0.2867
    123  CB       -10.1330   75.7270   31.1360 C.3   519  ARG519      0.0307
    124  CG        -9.1570   76.8750   30.9970 C.3   519  ARG519      0.0489
    125  CD        -8.2460   76.6070   29.8090 C.3   519  ARG519      0.2205
    126  NE        -7.5050   77.7910   29.3830 N.pl3 519  ARG519     -0.0865
    127  CZ        -6.4930   77.7870   28.5120 C.cat 519  ARG519      0.5346
    128  NH1       -6.0610   76.6490   27.9530 N.pl3 519  ARG519      0.1354
    129  NH2       -5.8950   78.9320   28.2060 N.pl3 519  ARG519      0.1354
    130  N          1.5660   78.8520   35.1250 N.3   581  ARG581     -0.1245
    131  CA         1.2900   77.4340   34.9610 C.3   581  ARG581      0.1563
    132  C          2.3890   76.6870   35.7000 C.2   581  ARG581      0.2260
    133  O          3.3830   76.2430   35.1150 O.2   581  ARG581     -0.2867
    134  CB         1.1880   77.0710   33.4790 C.3   581  ARG581      0.0307
    135  CG        -0.0620   77.6620   32.8060 C.3   581  ARG581      0.0489
    136  CD        -0.2050   77.2200   31.3490 C.3   581  ARG581      0.2205
    137  NE        -1.5440   77.4800   30.8070 N.pl3 581  ARG581     -0.0865
    138  CZ        -1.8580   77.4110   29.5160 C.cat 581  ARG581      0.5346
    139  NH1       -0.9380   77.0870   28.6150 N.pl3 581  ARG581      0.1354
    140  NH2       -3.1010   77.6720   29.1260 N.pl3 581  ARG581      0.1354
    141  N         -0.6770   71.6810   30.8410 N.3   615  TYR615     -0.1241
    142  CA        -1.6440   70.6630   30.4000 C.3   615  TYR615      0.1605
    143  C         -1.2210   69.3010   30.9220 C.2   615  TYR615      0.2264
    144  O         -0.0210   69.0100   31.0300 O.2   615  TYR615     -0.2867
    145  CB        -1.7530   70.6080   28.8750 C.3   615  TYR615      0.0534
    146  CG        -2.5950   71.6980   28.2370 C.ar  615  TYR615     -0.0201
    147  CD1       -2.4370   73.0400   28.6020 C.ar  615  TYR615     -0.0009
    148  CD2       -3.5250   71.3920   27.2450 C.ar  615  TYR615     -0.0009
    149  CE1       -3.1910   74.0380   28.0170 C.ar  615  TYR615      0.0417
    150  CE2       -4.2870   72.3960   26.6390 C.ar  615  TYR615      0.0417
    151  CZ        -4.1120   73.7160   27.0300 C.ar  615  TYR615      0.1957
    152  OH        -4.8480   74.7150   26.4340 O.3   615  TYR615     -0.2866
    153  N          3.6020   76.4400   29.7120 N.3   635  SER635     -0.1202
    154  CA         3.3540   76.4380   28.2650 C.3   635  SER635      0.2020
    155  C          2.6230   77.6970   27.7770 C.2   635  SER635      0.2618
    156  O          2.2370   77.7880   26.6050 O.2   635  SER635     -0.2717
    157  CB         2.6080   75.1720   27.8470 C.3   635  SER635      0.2103
    158  OG         1.3770   75.0760   28.5340 O.3   635  SER635     -0.2182
    159  N          2.4460   78.6610   28.6760 N.am  636  TRP636     -0.1975
    160  CA         1.8790   79.9640   28.3230 C.3   636  TRP636      0.1640
    161  C          2.9970   81.0030   28.2120 C.2   636  TRP636      0.2290
    162  O          2.9550   81.8820   27.3490 O.2   636  TRP636     -0.2864
    163  CB         0.8400   80.3880   29.3660 C.3   636  TRP636      0.0576
    164  CG         0.0770   81.6410   29.0330 C.ar  636  TRP636      0.0006
    165  CD1        0.3790   82.9190   29.4340 C.ar  636  TRP636      0.0946
    166  CD2       -1.1110   81.7440   28.2290 C.ar  636  TRP636      0.0152
    167  NE1       -0.5550   83.8030   28.9380 N.ar  636  TRP636     -0.2442
    168  CE2       -1.4760   83.1110   28.1940 C.ar  636  TRP636      0.0810
    169  CE3       -1.9080   80.8160   27.5440 C.ar  636  TRP636      0.0012
    170  CZ2       -2.6070   83.5710   27.4960 C.ar  636  TRP636      0.0191
    171  CZ3       -3.0290   81.2740   26.8510 C.ar  636  TRP636      0.0001
    172  CH2       -3.3630   82.6410   26.8290 C.ar  636  TRP636      0.0015
@<TRIPOS>BOND
     1    66    65    2
     2    65    64    1
     3    64    63    1
     4    64    67    1
     5    67    68    1
     6    68    69    1
     7    69    70    1
     8    57    58    2
     9    57    56    1
    10    71    72    1
    11    74    73    2
    12    56    59    1
    13    56    55    1
    14    73    72    1
    15    72    75    1
    16    39    40    1
    17    59    60    1
    18    90    89    1
    19    34    33    2
    20    45    43    1
    21    22    21    1
    22    22    23    2
    23    33    32    1
    24    87    89   ar
    25    87    85   ar
    26    43    40    1
    27    43    44    1
    28    89    88   ar
    29    21    20    1
    30    21    24    1
    31    40    41    1
    32    75    76    1
    33    60    61   ar
    34    60    62   ar
    35    42    41    2
    36    85    84   ar
    37    78    76   am
    38    76    77    2
    39    88    86   ar
    40    41    47   am
    41    24    25    1
    42    46    44    1
    43    32    31    1
    44    32    35    1
    45    25    26    1
    46    35    36    1
    47    84    86   ar
    48    84    83    1
    49    79    80    1
    50    80    83    1
    51    80    81    1
    52    47    48    1
    53    50    49    2
    54    26    27    1
    55    27    28    2
    56    49    48    1
    57    81    82    2
    58    36    37   ar
    59    36    38   ar
    60    48    51    1
    61    28    30    1
    62    28    29    1
    63    51    52    1
    64    94    93    2
    65    52    54   ar
    66    52    53   ar
    67    93    92    1
    68   102   101    1
    69    91    92    1
    70     4     3    2
    71     1     2    1
    72    99   101   ar
    73    99    97   ar
    74    17    16    1
    75    17    19    1
    76   101   100   ar
    77    92    95    1
    78     5     2    1
    79     5     6    1
    80    97    96   ar
    81    16    18    1
    82    16    13    1
    83   100    98   ar
    84     3     2    1
    85     3    12   am
    86     6     7    1
    87    96    98   ar
    88    96    95    1
    89     7     8    1
    90    15    14    2
    91    10     9    1
    92    12    13    1
    93    13    14    1
    94   108   107    1
    95     8     9    2
    96     9    11    1
    97   109   107    1
    98   117   116   ar
    99   107   104    1
   100   104   103    1
   101   104   105    1
   102   152   151    1
   103   156   155    2
   104   115   116    1
   105   115   114    1
   106   150   151   ar
   107   150   148   ar
   108   116   118   ar
   109   172   171   ar
   110   172   170   ar
   111   171   169   ar
   112   151   149   ar
   113   105   106    2
   114   148   146   ar
   115   162   161    2
   116   170   168   ar
   117   169   166   ar
   118   155   154    1
   119   155   159   am
   120   157   154    1
   121   157   158    1
   122   111   114    1
   123   111   110    1
   124   111   112    1
   125   128   127    1
   126   149   147   ar
   127   168   166   ar
   128   168   167   ar
   129   129   127    1
   130   161   160    1
   131   166   164   ar
   132   146   147   ar
   133   146   145    1
   134   154   153    1
   135   160   159    1
   136   160   163    1
   137   127   126    2
   138   139   138    1
   139   145   142    1
   140   167   165   ar
   141   164   163    1
   142   164   165   ar
   143   112   113    2
   144   140   138    1
   145   126   125    1
   146   138   137    2
   147   125   124    1
   148   142   141    1
   149   142   143    1
   150   137   136    1
   151   143   144    2
   152   124   123    1
   153   123   120    1
   154   122   121    2
   155   136   135    1
   156   121   120    1
   157   119   120    1
   158   135   134    1
   159   134   131    1
   160   131   130    1
   161   131   132    1
   162   133   132    2
