@<TRIPOS>MOLECULE
tmp/2vw5A00.pdb
 171 160 0 0 0
SMALL
GASTEIGER

@<TRIPOS>ATOM
      1  N         32.3440   -4.3360   41.3840 N.3    34  LEU34      -0.1245
      2  CA        32.2000   -5.7320   40.9300 C.3    34  LEU34       0.1561
      3  C         31.4580   -5.8210   39.6140 C.2    34  LEU34       0.2260
      4  O         31.7400   -6.6860   38.7850 O.2    34  LEU34      -0.2867
      5  CB        31.5010   -6.5730   42.0210 C.3    34  LEU34       0.0270
      6  CG        32.3400   -6.6180   43.3290 C.3    34  LEU34       0.0019
      7  CD1       31.7090   -7.6040   44.2880 C.3    34  LEU34       0.0001
      8  CD2       33.8350   -6.9150   43.0740 C.3    34  LEU34       0.0001
      9  N         31.6280   -3.3480   37.3270 N.3    36  SER36      -0.1202
     10  CA        32.6290   -2.8560   36.3670 C.3    36  SER36       0.2020
     11  C         33.5860   -3.9970   35.9720 C.2    36  SER36       0.2619
     12  O         33.9130   -4.1700   34.7790 O.2    36  SER36      -0.2717
     13  CB        33.3960   -1.6580   36.9570 C.3    36  SER36       0.2103
     14  OG        34.3920   -1.1670   36.0610 O.3    36  SER36      -0.2182
     15  N         34.0320   -4.7740   36.9740 N.am   37  ASN37      -0.1960
     16  CA        34.8970   -5.9270   36.7200 C.3    37  ASN37       0.1819
     17  C         34.2000   -6.9090   35.7830 C.2    37  ASN37       0.2621
     18  O         34.8120   -7.4110   34.8420 O.2    37  ASN37      -0.2715
     19  CB        35.2720   -6.6560   38.0490 C.3    37  ASN37       0.1195
     20  CG        36.1880   -5.8240   38.9630 C.2    37  ASN37       0.2630
     21  OD1       36.5250   -6.2380   40.1010 O.2    37  ASN37      -0.2716
     22  ND2       36.6120   -4.6700   38.4800 N.am   37  ASN37      -0.0877
     23  N         32.9240   -7.2120   36.0700 N.am   38  ALA38      -0.1977
     24  CA        32.1270   -8.1300   35.2640 C.3    38  ALA38       0.1597
     25  C         32.0050   -7.6150   33.8230 C.2    38  ALA38       0.2287
     26  O         32.1170   -8.3760   32.8650 O.2    38  ALA38      -0.2864
     27  CB        30.7160   -8.2840   35.9030 C.3    38  ALA38       0.0319
     28  N         34.1720   -5.5730   32.2840 N.3    40  ASP40      -0.1225
     29  CA        35.4840   -5.8030   31.6820 C.3    40  ASP40       0.1805
     30  C         35.6260   -7.2530   31.1780 C.2    40  ASP40       0.2597
     31  O         36.1230   -7.4880   30.0960 O.2    40  ASP40      -0.2718
     32  CB        36.5760   -5.4530   32.7120 C.3    40  ASP40       0.1424
     33  CG        38.0040   -5.5610   32.1440 C.2    40  ASP40       0.3668
     34  OD1       38.3260   -4.9290   31.1130 O.co2  40  ASP40      -0.2456
     35  OD2       38.8170   -6.2790   32.7450 O.co2  40  ASP40      -0.2456
     36  N         35.1980   -8.2220   31.9800 N.am   41  ALA41      -0.1979
     37  CA        35.3500   -9.6310   31.5810 C.3    41  ALA41       0.1597
     38  C         34.4970   -9.9750   30.3460 C.2    41  ALA41       0.2287
     39  O         34.8870  -10.7740   29.4640 O.2    41  ALA41      -0.2864
     40  CB        35.0350  -10.5450   32.7710 C.3    41  ALA41       0.0319
     41  N         36.0360   -8.5670   27.2270 N.3    44  LYS44      -0.1245
     42  CA        37.1890   -9.3520   26.8020 C.3    44  LYS44       0.1561
     43  C         36.7740  -10.5350   25.9760 C.2    44  LYS44       0.2260
     44  O         37.3630  -10.7740   24.9290 O.2    44  LYS44      -0.2867
     45  CB        38.1050   -9.6930   28.0170 C.3    44  LYS44       0.0271
     46  CG        38.9300   -8.4150   28.4200 C.3    44  LYS44       0.0035
     47  CD        39.6570   -8.5590   29.7600 C.3    44  LYS44       0.0206
     48  CE        40.5550   -7.3040   30.0470 C.3    44  LYS44       0.1093
     49  NZ        40.9510   -7.1710   31.5490 N.3    44  LYS44      -0.1314
     50  N         29.0530  -13.1500   35.9620 N.3    79  ASP79      -0.1239
     51  CA        29.1240  -12.6950   34.5760 C.3    79  ASP79       0.1674
     52  C         29.4040  -13.8880   33.6680 C.2    79  ASP79       0.2266
     53  O         29.9750  -14.9120   34.1200 O.2    79  ASP79      -0.2867
     54  CB        30.2120  -11.6010   34.4280 C.3    79  ASP79       0.1410
     55  CG        31.6010  -12.1450   34.6840 C.2    79  ASP79       0.3668
     56  OD1       32.1260  -11.9500   35.8200 O.co2  79  ASP79      -0.2456
     57  OD2       32.1450  -12.8210   33.7710 O.co2  79  ASP79      -0.2456
     58  N         34.9970  -13.6030   30.0670 N.3    82  ILE82      -0.1231
     59  CA        36.1240  -14.5000   29.6970 C.3    82  ILE82       0.1692
     60  C         36.4980  -15.6120   30.7280 C.2    82  ILE82       0.2593
     61  O         36.9680  -16.6970   30.3450 O.2    82  ILE82      -0.2718
     62  CB        37.3600  -13.6480   29.3110 C.3    82  ILE82       0.0266
     63  CG1       38.4430  -14.4750   28.5820 C.3    82  ILE82       0.0019
     64  CG2       37.9140  -12.8740   30.5100 C.3    82  ILE82       0.0020
     65  CD1       39.4120  -13.5810   27.7940 C.3    82  ILE82       0.0001
     66  N         36.3150  -15.3220   32.0120 N.am   83  GLY83      -0.1942
     67  CA        36.6890  -16.2560   33.0820 C.3    83  GLY83       0.2014
     68  C         38.1880  -16.2430   33.2930 C.2    83  GLY83       0.2638
     69  O         38.9400  -15.5270   32.5760 O.2    83  GLY83      -0.2714
     70  N         38.6410  -17.0280   34.2740 N.am   84  MET84      -0.1976
     71  CA        40.0310  -17.1010   34.6550 C.3    84  MET84       0.1605
     72  C         40.4460  -18.5330   34.8590 C.2    84  MET84       0.2287
     73  O         39.6890  -19.3110   35.4260 O.2    84  MET84      -0.2864
     74  CB        40.2710  -16.3140   35.9550 C.3    84  MET84       0.0413
     75  CG        40.1330  -14.7480   35.7710 C.3    84  MET84       0.0598
     76  SD        40.0990  -13.9290   37.3710 S.3    84  MET84      -0.1393
     77  CE        38.4710  -14.4050   37.9380 C.3    84  MET84       0.0692
     78  N         45.7490  -17.9700   36.3660 N.3    88  GLU88      -0.1245
     79  CA        45.2640  -16.5910   36.4110 C.3    88  GLU88       0.1567
     80  C         44.7140  -16.1790   37.7680 C.2    88  GLU88       0.2260
     81  O         44.9660  -15.0770   38.2390 O.2    88  GLU88      -0.2867
     82  CB        44.1730  -16.3650   35.3510 C.3    88  GLU88       0.0388
     83  CG        44.7270  -16.2270   33.9350 C.3    88  GLU88       0.1160
     84  CD        43.6310  -15.9510   32.9230 C.2    88  GLU88       0.3649
     85  OE1       42.6550  -16.7110   32.8540 O.co2  88  GLU88      -0.2457
     86  OE2       43.7570  -14.9640   32.1790 O.co2  88  GLU88      -0.2457
     87  N         46.7370  -13.3490   39.9310 N.3    92  ASN92      -0.1225
     88  CA        46.0620  -12.0470   39.9190 C.3    92  ASN92       0.1785
     89  C         45.2600  -11.7120   41.1800 C.2    92  ASN92       0.2597
     90  O         44.8800  -10.5510   41.4050 O.2    92  ASN92      -0.2718
     91  CB        45.1340  -11.9800   38.7100 C.3    92  ASN92       0.1169
     92  CG        45.8910  -11.8880   37.4350 C.2    92  ASN92       0.2627
     93  OD1       46.0650  -12.8790   36.7090 O.2    92  ASN92      -0.2716
     94  ND2       46.4120  -10.7080   37.1720 N.am   92  ASN92      -0.0877
     95  N         44.9850  -12.7500   41.9660 N.am   93  LEU93      -0.1980
     96  CA        44.2110  -12.6330   43.1910 C.3    93  LEU93       0.1596
     97  C         44.9980  -12.9450   44.4710 C.2    93  LEU93       0.2287
     98  O         44.4560  -13.5170   45.4190 O.2    93  LEU93      -0.2864
     99  CB        42.9500  -13.5070   43.1110 C.3    93  LEU93       0.0297
    100  CG        41.8090  -12.9660   42.2290 C.3    93  LEU93       0.0022
    101  CD1       40.5710  -13.9120   42.3200 C.3    93  LEU93       0.0001
    102  CD2       41.4390  -11.5120   42.6220 C.3    93  LEU93       0.0001
    103  N         49.8090   -6.0720   42.5390 N.3    98  LYS98      -0.1245
    104  CA        49.5680   -5.3500   41.2900 C.3    98  LYS98       0.1561
    105  C         49.9990   -3.8890   41.3760 C.2    98  LYS98       0.2260
    106  O         50.0410   -3.3100   42.4710 O.2    98  LYS98      -0.2867
    107  CB        48.0700   -5.4190   41.0230 C.3    98  LYS98       0.0271
    108  CG        47.5980   -5.1570   39.6180 C.3    98  LYS98       0.0035
    109  CD        46.0770   -5.3280   39.5830 C.3    98  LYS98       0.0206
    110  CE        45.3860   -4.1590   38.8990 C.3    98  LYS98       0.1093
    111  NZ        45.3980   -4.2010   37.4210 N.3    98  LYS98      -0.1314
    112  N         43.0680    0.1780   40.0690 N.3   121  GLY121     -0.1210
    113  CA        43.0780   -1.2110   39.5770 C.3   121  GLY121      0.1956
    114  C         42.9800   -2.2740   40.6640 C.2   121  GLY121      0.2612
    115  O         43.3100   -3.4400   40.4270 O.2   121  GLY121     -0.2717
    116  N         42.5020   -1.8920   41.8490 N.am  122  VAL122     -0.1965
    117  CA        42.3470   -2.8360   42.9810 C.3   122  VAL122      0.1727
    118  C         40.9210   -2.8800   43.5740 C.2   122  VAL122      0.2617
    119  O         40.7160   -3.3410   44.6980 O.2   122  VAL122     -0.2715
    120  CB        43.4350   -2.6220   44.0960 C.3   122  VAL122      0.0290
    121  CG1       44.8560   -2.9760   43.5430 C.3   122  VAL122      0.0023
    122  CG2       43.4050   -1.1770   44.5920 C.3   122  VAL122      0.0023
    123  N         39.9380   -2.4200   42.8010 N.am  123  GLY123     -0.1940
    124  CA        38.5320   -2.3860   43.2220 C.3   123  GLY123      0.2014
    125  C         37.8890   -3.7140   43.6060 C.2   123  GLY123      0.2639
    126  O         36.8510   -3.7410   44.2940 O.2   123  GLY123     -0.2714
    127  N         38.4680   -4.8230   43.1470 N.am  124  PHE124     -0.1959
    128  CA        38.0060   -6.1540   43.6040 C.3   124  PHE124      0.1771
    129  C         37.9220   -6.1980   45.1290 C.2   124  PHE124      0.2619
    130  O         36.9650   -6.7400   45.7100 O.2   124  PHE124     -0.2715
    131  CB        38.9800   -7.2390   43.1030 C.3   124  PHE124      0.0574
    132  CG        38.7290   -8.6010   43.6850 C.ar  124  PHE124     -0.0200
    133  CD1       37.6870   -9.3910   43.2010 C.ar  124  PHE124     -0.0042
    134  CD2       39.5260   -9.0910   44.7380 C.ar  124  PHE124     -0.0042
    135  CE1       37.4590  -10.6750   43.7140 C.ar  124  PHE124     -0.0003
    136  CE2       39.2830  -10.3500   45.2700 C.ar  124  PHE124     -0.0003
    137  CZ        38.2570  -11.1580   44.7350 C.ar  124  PHE124     -0.0000
    138  N         38.9290   -5.6000   45.7780 N.am  125  TYR125     -0.1974
    139  CA        39.0760   -5.6870   47.2310 C.3   125  TYR125      0.1639
    140  C         38.0560   -4.8430   48.0030 C.2   125  TYR125      0.2290
    141  O         37.9300   -4.9710   49.2070 O.2   125  TYR125     -0.2864
    142  CB        40.5160   -5.3750   47.6360 C.3   125  TYR125      0.0560
    143  CG        41.4460   -6.4560   47.1330 C.ar  125  TYR125     -0.0198
    144  CD1       42.1220   -6.3090   45.9210 C.ar  125  TYR125     -0.0009
    145  CD2       41.6100   -7.6390   47.8480 C.ar  125  TYR125     -0.0009
    146  CE1       42.9540   -7.3200   45.4320 C.ar  125  TYR125      0.0417
    147  CE2       42.4600   -8.6760   47.3630 C.ar  125  TYR125      0.0417
    148  CZ        43.1180   -8.4990   46.1670 C.ar  125  TYR125      0.1957
    149  OH        43.9690   -9.4840   45.6960 O.3   125  TYR125     -0.2866
    150  N         35.6070  -16.8550   44.7190 N.3   136  VAL136     -0.1245
    151  CA        35.5550  -16.5610   43.2940 C.3   136  VAL136      0.1561
    152  C         35.5500  -17.8830   42.5400 C.2   136  VAL136      0.2260
    153  O         36.5510  -18.6580   42.5890 O.2   136  VAL136     -0.2867
    154  CB        36.7160  -15.6590   42.8740 C.3   136  VAL136      0.0252
    155  CG1       36.8270  -15.5450   41.3340 C.3   136  VAL136      0.0019
    156  CG2       36.5610  -14.2560   43.5400 C.3   136  VAL136      0.0019
    157  N         32.4650  -16.0030   35.5590 N.3   171  THR171     -0.1218
    158  CA        32.9200  -15.9570   36.9540 C.3   171  THR171      0.1862
    159  C         31.7310  -15.6450   37.8760 C.2   171  THR171      0.2287
    160  O         30.8260  -14.8860   37.4900 O.2   171  THR171     -0.2866
    161  CB        34.0060  -14.8440   37.1060 C.3   171  THR171      0.1770
    162  OG1       35.1510  -15.2020   36.3300 O.3   171  THR171     -0.2211
    163  CG2       34.4570  -14.6310   38.5860 C.3   171  THR171      0.0375
    164  N         31.3200  -14.1340   41.7500 N.3   173  LEU173     -0.1245
    165  CA        31.7200  -13.6170   43.0340 C.3   173  LEU173      0.1561
    166  C         30.6550  -13.9800   44.0670 C.2   173  LEU173      0.2260
    167  O         29.5390  -13.4420   44.0770 O.2   173  LEU173     -0.2867
    168  CB        31.9770  -12.1150   42.9740 C.3   173  LEU173      0.0270
    169  CG        33.4830  -11.8280   42.7060 C.3   173  LEU173      0.0019
    170  CD1       33.9890  -12.2520   41.2930 C.3   173  LEU173      0.0001
    171  CD2       33.7880  -10.4230   42.9770 C.3   173  LEU173      0.0001
@<TRIPOS>BOND
     1    44    43    2
     2    43    42    1
     3    42    41    1
     4    42    45    1
     5    65    63    1
     6    45    46    1
     7    46    47    1
     8    63    62    1
     9    62    59    1
    10    62    64    1
    11    39    38    2
    12    59    58    1
    13    59    60    1
    14    47    48    1
    15    48    49    1
    16    31    30    2
    17    61    60    2
    18    38    37    1
    19    60    66   am
    20    34    33   ar
    21    30    29    1
    22    30    36   am
    23    37    36    1
    24    37    40    1
    25    29    28    1
    26    29    32    1
    27    66    67    1
    28    33    32    1
    29    33    35   ar
    30    86    84   ar
    31    69    68    2
    32    85    84   ar
    33    26    25    2
    34    84    83    1
    35    67    68    1
    36    68    70   am
    37    52    53    2
    38    52    51    1
    39    57    55   ar
    40    25    24    1
    41    83    82    1
    42    70    71    1
    43    54    51    1
    44    54    55    1
    45    51    50    1
    46    71    72    1
    47    71    74    1
    48    55    56   ar
    49    12    11    2
    50    18    17    2
    51    72    73    2
    52    24    27    1
    53    24    23    1
    54    82    79    1
    55   157   158    1
    56    75    74    1
    57    75    76    1
    58    17    23   am
    59    17    16    1
    60    11    10    1
    61    11    15   am
    62    14    13    1
    63   162   161    1
    64    78    79    1
    65    10    13    1
    66    10     9    1
    67    79    80    1
    68    93    92    2
    69    16    15    1
    70    16    19    1
    71   158   161    1
    72   158   159    1
    73   161   163    1
    74    94    92   am
    75    76    77    1
    76   111   110    1
    77    92    91    1
    78   160   159    2
    79    80    81    2
    80    19    20    1
    81    22    20   am
    82    91    88    1
    83     4     3    2
    84   110   109    1
    85    20    21    2
    86   113   112    1
    87   113   114    1
    88   109   108    1
    89     3     2    1
    90   108   107    1
    91    88    87    1
    92    88    89    1
    93   115   114    2
    94   114   116   am
    95     2     1    1
    96     2     5    1
    97   107   104    1
    98    89    90    2
    99    89    95   am
   100   104   105    1
   101   104   103    1
   102   170   169    1
   103   155   154    1
   104   105   106    2
   105   164   165    1
   106   116   117    1
   107    95    96    1
   108     5     6    1
   109   100   101    1
   110   100   102    1
   111   100    99    1
   112   152   153    2
   113   152   151    1
   114   169   168    1
   115   169   171    1
   116   123   124    1
   117   123   118   am
   118   154   151    1
   119   154   156    1
   120   168   165    1
   121   117   118    1
   122   117   120    1
   123   165   166    1
   124     8     6    1
   125   131   128    1
   126   131   132    1
   127    99    96    1
   128   127   128    1
   129   127   125   am
   130    96    97    1
   131   133   132   ar
   132   133   135   ar
   133   124   125    1
   134   151   150    1
   135     6     7    1
   136   121   120    1
   137   118   119    2
   138   128   129    1
   139   125   126    2
   140   132   134   ar
   141   135   137   ar
   142   166   167    2
   143   120   122    1
   144    97    98    2
   145   137   136   ar
   146   134   136   ar
   147   129   130    2
   148   129   138   am
   149   146   144   ar
   150   146   148   ar
   151   149   148    1
   152   138   139    1
   153   144   143   ar
   154   148   147   ar
   155   143   142    1
   156   143   145   ar
   157   139   142    1
   158   139   140    1
   159   147   145   ar
   160   140   141    2
