@<TRIPOS>MOLECULE
tmp/2vwaC00.pdb
 113 106 0 0 0
SMALL
GASTEIGER

@<TRIPOS>ATOM
      1  N         70.4350    4.6110  -24.6230 N.3    23  TYR23      -0.1241
      2  CA        69.6690    5.7440  -25.1130 C.3    23  TYR23       0.1605
      3  C         69.6080    5.7860  -26.6540 C.2    23  TYR23       0.2264
      4  O         68.4990    5.8650  -27.2450 O.2    23  TYR23      -0.2867
      5  CB        70.2100    7.0550  -24.5580 C.3    23  TYR23       0.0534
      6  CG        69.5470    8.2210  -25.1820 C.ar   23  TYR23      -0.0201
      7  CD1       68.3000    8.6590  -24.7220 C.ar   23  TYR23      -0.0009
      8  CD2       70.1410    8.8830  -26.2730 C.ar   23  TYR23      -0.0009
      9  CE1       67.6490    9.7400  -25.3180 C.ar   23  TYR23       0.0417
     10  CE2       69.5000    9.9500  -26.8850 C.ar   23  TYR23       0.0417
     11  CZ        68.2390   10.3760  -26.3910 C.ar   23  TYR23       0.1957
     12  OH        67.5940   11.4420  -26.9840 O.3    23  TYR23      -0.2866
     13  N         62.4340    5.8780  -33.3740 N.3    31  ARG31      -0.1245
     14  CA        62.3290    6.4230  -34.6990 C.3    31  ARG31       0.1563
     15  C         61.5800    5.4880  -35.6290 C.2    31  ARG31       0.2260
     16  O         60.6780    5.9120  -36.3740 O.2    31  ARG31      -0.2867
     17  CB        63.7110    6.7010  -35.2690 C.3    31  ARG31       0.0307
     18  CG        64.3650    7.9260  -34.6930 C.3    31  ARG31       0.0489
     19  CD        65.6830    8.1810  -35.3630 C.3    31  ARG31       0.2205
     20  NE        66.4690    9.1110  -34.5700 N.pl3  31  ARG31      -0.0865
     21  CZ        67.7930    9.2350  -34.6550 C.cat  31  ARG31       0.5346
     22  NH1       68.4830    8.4840  -35.5030 N.pl3  31  ARG31       0.1354
     23  NH2       68.4340   10.1140  -33.8920 N.pl3  31  ARG31       0.1354
     24  N         57.6790    6.1500  -36.9240 N.3    35  GLN35      -0.1245
     25  CA        57.5990    6.2190  -38.3700 C.3    35  GLN35       0.1566
     26  C         56.5510    5.2160  -38.8930 C.2    35  GLN35       0.2260
     27  O         55.6890    5.5690  -39.7210 O.2    35  GLN35      -0.2867
     28  CB        58.9750    5.9530  -38.9870 C.3    35  GLN35       0.0367
     29  CG        58.9610    5.7660  -40.4740 C.3    35  GLN35       0.0905
     30  CD        60.3440    5.6890  -41.1070 C.2    35  GLN35       0.2608
     31  OE1       61.3800    5.9640  -40.4780 O.2    35  GLN35      -0.2717
     32  NE2       60.3580    5.3380  -42.3860 N.am   35  GLN35      -0.0878
     33  N         53.2150    6.5010  -40.7310 N.3    39  GLU39      -0.1245
     34  CA        52.9980    6.1250  -42.1190 C.3    39  GLU39       0.1567
     35  C         51.6370    5.4450  -42.3060 C.2    39  GLU39       0.2260
     36  O         51.0550    5.5370  -43.3740 O.2    39  GLU39      -0.2867
     37  CB        54.1870    5.3330  -42.7040 C.3    39  GLU39       0.0388
     38  CG        55.3790    6.2720  -42.9270 C.3    39  GLU39       0.1160
     39  CD        56.6420    5.6190  -43.4820 C.2    39  GLU39       0.3649
     40  OE1       56.8950    4.4120  -43.2250 O.co2  39  GLU39      -0.2457
     41  OE2       57.4090    6.3540  -44.1680 O.co2  39  GLU39      -0.2457
     42  N         64.9270   14.9260  -24.6240 N.3    76  LYS76      -0.1245
     43  CA        65.8410   14.7940  -25.7530 C.3    76  LYS76       0.1561
     44  C         65.3030   13.7820  -26.8170 C.2    76  LYS76       0.2260
     45  O         65.3370   14.0460  -28.0210 O.2    76  LYS76      -0.2867
     46  CB        67.2260   14.3980  -25.2210 C.3    76  LYS76       0.0271
     47  CG        68.4220   14.8550  -26.0370 C.3    76  LYS76       0.0035
     48  CD        69.8060   14.5260  -25.3300 C.3    76  LYS76       0.0206
     49  CE        70.1440   13.0130  -25.4190 C.3    76  LYS76       0.1093
     50  NZ        71.5330   12.6170  -24.9910 N.3    76  LYS76      -0.1314
     51  N         64.1180   14.5660  -30.8090 N.3    79  ASP79      -0.1239
     52  CA        64.6300   13.7130  -31.8740 C.3    79  ASP79       0.1674
     53  C         63.5300   13.1560  -32.7800 C.2    79  ASP79       0.2266
     54  O         63.6750   13.1580  -34.0030 O.2    79  ASP79      -0.2867
     55  CB        65.4630   12.5770  -31.2850 C.3    79  ASP79       0.1410
     56  CG        66.2360   11.8140  -32.3380 C.2    79  ASP79       0.3668
     57  OD1       65.6390   11.0490  -33.1330 O.co2  79  ASP79      -0.2456
     58  OD2       67.4760   11.9520  -32.3550 O.co2  79  ASP79      -0.2456
     59  N         62.2260   15.7840  -35.1320 N.3    82  TYR82      -0.1227
     60  CA        63.0670   15.9420  -36.2860 C.3    82  TYR82       0.1736
     61  C         62.8220   14.8250  -37.2910 C.2    82  TYR82       0.2595
     62  O         62.7250   15.0820  -38.4940 O.2    82  TYR82      -0.2718
     63  CB        64.5410   16.0020  -35.8780 C.3    82  TYR82       0.0548
     64  CG        65.4370   16.4730  -37.0000 C.ar   82  TYR82      -0.0200
     65  CD1       66.6310   15.8340  -37.2670 C.ar   82  TYR82      -0.0009
     66  CD2       65.0660   17.5600  -37.8200 C.ar   82  TYR82      -0.0009
     67  CE1       67.4560   16.2610  -38.2860 C.ar   82  TYR82       0.0417
     68  CE2       65.8930   18.0060  -38.8480 C.ar   82  TYR82       0.0417
     69  CZ        67.0870   17.3400  -39.0770 C.ar   82  TYR82       0.1957
     70  OH        67.9230   17.7290  -40.1030 O.3    82  TYR82      -0.2866
     71  N         62.7170   13.5920  -36.7930 N.am   83  HIS83      -0.1975
     72  CA        62.5190   12.4170  -37.6430 C.3    83  HIS83       0.1656
     73  C         61.1890   12.5010  -38.3600 C.2    83  HIS83       0.2291
     74  O         61.1130   12.3100  -39.5580 O.2    83  HIS83      -0.2864
     75  CB        62.6310   11.1130  -36.8010 C.3    83  HIS83       0.0771
     76  CG        62.5430    9.8530  -37.5980 C.ar   83  HIS83       0.0820
     77  ND1       63.5310    9.4560  -38.4680 N.ar   83  HIS83      -0.2267
     78  CD2       61.5860    8.8950  -37.6540 C.ar   83  HIS83       0.1154
     79  CE1       63.1840    8.3200  -39.0450 C.ar   83  HIS83       0.1986
     80  NE2       62.0150    7.9470  -38.5600 N.ar   83  HIS83      -0.2212
     81  N         60.9890   14.8000  -41.4220 N.3    86  LYS86      -0.1231
     82  CA        61.5920   14.2440  -42.5880 C.3    86  LYS86       0.1693
     83  C         60.8000   13.0790  -43.1890 C.2    86  LYS86       0.2591
     84  O         60.8270   12.8750  -44.4100 O.2    86  LYS86      -0.2718
     85  CB        63.0310   13.8350  -42.2760 C.3    86  LYS86       0.0285
     86  CG        63.8970   15.0200  -41.8680 C.3    86  LYS86       0.0035
     87  CD        65.3280   14.5920  -41.7950 C.3    86  LYS86       0.0206
     88  CE        65.5620   13.6590  -40.6230 C.3    86  LYS86       0.1093
     89  NZ        66.7540   12.7480  -40.8660 N.3    86  LYS86      -0.1314
     90  N         60.1220   12.3060  -42.3360 N.am   87  VAL87      -0.1980
     91  CA        59.2310   11.2430  -42.7900 C.3    87  VAL87       0.1595
     92  C         58.0930   11.9130  -43.5700 C.2    87  VAL87       0.2287
     93  O         57.7570   11.4920  -44.6790 O.2    87  VAL87      -0.2864
     94  CB        58.7070   10.4040  -41.6000 C.3    87  VAL87       0.0276
     95  CG1       57.5600    9.5210  -41.9970 C.3    87  VAL87       0.0022
     96  CG2       59.8200    9.5650  -41.0030 C.3    87  VAL87       0.0022
     97  N         59.0950   13.2180  -47.0650 N.3    90  ASN90      -0.1240
     98  CA        59.0480   12.1590  -48.0620 C.3    90  ASN90       0.1653
     99  C         57.6120   11.8070  -48.5220 C.2    90  ASN90       0.2266
    100  O         57.3490   11.7100  -49.6970 O.2    90  ASN90      -0.2867
    101  CB        59.7900   10.9220  -47.5380 C.3    90  ASN90       0.1155
    102  CG        59.6200    9.6970  -48.4530 C.2    90  ASN90       0.2627
    103  OD1       58.8730    8.7620  -48.1360 O.2    90  ASN90      -0.2716
    104  ND2       60.2980    9.7130  -49.6020 N.am   90  ASN90      -0.0877
    105  N         56.2480   11.9960  -52.3510 N.3    94  GLN94      -0.1245
    106  CA        55.5900   10.8360  -52.9240 C.3    94  GLN94       0.1566
    107  C         54.1660   11.1620  -53.3290 C.2    94  GLN94       0.2260
    108  O         53.7660   10.8730  -54.4300 O.2    94  GLN94      -0.2867
    109  CB        55.5950    9.6720  -51.9350 C.3    94  GLN94       0.0367
    110  CG        56.8600    8.8080  -51.9680 C.3    94  GLN94       0.0905
    111  CD        56.6840    7.4870  -51.1890 C.2    94  GLN94       0.2608
    112  OE1       56.3510    7.4880  -49.9850 O.2    94  GLN94      -0.2717
    113  NE2       56.9010    6.3560  -51.8780 N.am   94  GLN94      -0.0878
@<TRIPOS>BOND
     1   108   107    2
     2   107   106    1
     3   106   105    1
     4   106   109    1
     5   110   109    1
     6   110   111    1
     7   113   111   am
     8   111   112    2
     9   100    99    2
    10   104   102   am
    11    99    98    1
    12   102   103    2
    13   102   101    1
    14    98   101    1
    15    98    97    1
    16    93    92    2
    17    84    83    2
    18    41    39   ar
    19    92    91    1
    20    39    40   ar
    21    39    38    1
    22    36    35    2
    23    83    82    1
    24    83    90   am
    25    38    37    1
    26    91    90    1
    27    91    94    1
    28    37    34    1
    29    82    85    1
    30    82    81    1
    31    32    30   am
    32    35    34    1
    33    85    86    1
    34    34    33    1
    35    95    94    1
    36    86    87    1
    37    87    88    1
    38    94    96    1
    39    30    31    2
    40    30    29    1
    41    89    88    1
    42    29    28    1
    43    70    69    1
    44    27    26    2
    45    74    73    2
    46    69    68   ar
    47    69    67   ar
    48    79    80   ar
    49    79    77   ar
    50    28    25    1
    51    26    25    1
    52    68    66   ar
    53    80    78   ar
    54    62    61    2
    55    77    76   ar
    56    25    24    1
    57    73    72    1
    58    67    65   ar
    59    66    64   ar
    60    78    76   ar
    61    72    75    1
    62    72    71    1
    63    76    75    1
    64    61    71   am
    65    61    60    1
    66    65    64   ar
    67    64    63    1
    68    16    15    2
    69    60    63    1
    70    60    59    1
    71    15    14    1
    72    22    21    1
    73    19    18    1
    74    19    20    1
    75    17    14    1
    76    17    18    1
    77    14    13    1
    78    21    20    2
    79    21    23    1
    80    54    53    2
    81    57    56   ar
    82    53    52    1
    83    58    56   ar
    84    56    55    1
    85    52    55    1
    86    52    51    1
    87    45    44    2
    88     4     3    2
    89    12    11    1
    90    10    11   ar
    91    10     8   ar
    92    44    43    1
    93     3     2    1
    94    11     9   ar
    95     8     6   ar
    96    47    48    1
    97    47    46    1
    98    43    46    1
    99    43    42    1
   100    49    48    1
   101    49    50    1
   102     9     7   ar
   103     6     7   ar
   104     6     5    1
   105     2     1    1
   106     2     5    1
