@<TRIPOS>MOLECULE
tmp/2vwbA00.pdb
 186 178 0 0 0
SMALL
GASTEIGER

@<TRIPOS>ATOM
      1  N        -22.0470   69.7380    0.7380 N.3     9  THR9       -0.1203
      2  CA       -23.1680   69.1210    1.4540 C.3     9  THR9        0.1994
      3  C        -22.7270   68.3920    2.7320 C.2     9  THR9        0.2618
      4  O        -23.5620   67.8800    3.4890 O.2     9  THR9       -0.2717
      5  CB       -23.9600   68.1410    0.5620 C.3     9  THR9        0.1784
      6  OG1      -23.2040   66.9370    0.3750 O.3     9  THR9       -0.2211
      7  CG2      -24.2700   68.7660   -0.7920 C.3     9  THR9        0.0376
      8  N        -21.4160   68.3470    2.9610 N.am   10  ALA10      -0.1965
      9  CA       -20.8650   67.7600    4.1740 C.3    10  ALA10       0.1728
     10  C        -19.5130   68.3990    4.5350 C.2    10  ALA10       0.2616
     11  O        -19.4610   69.5410    5.0020 O.2    10  ALA10      -0.2715
     12  CB       -20.7500   66.2300    4.0280 C.3    10  ALA10       0.0334
     13  N        -18.4320   67.6600    4.2960 N.am   11  GLU11      -0.1963
     14  CA       -17.0990   68.0660    4.7050 C.3    11  GLU11       0.1733
     15  C        -16.4650   68.9070    3.6180 C.2    11  GLU11       0.2616
     16  O        -16.1410   70.0730    3.8370 O.2    11  GLU11      -0.2715
     17  CB       -16.2370   66.8360    5.0160 C.3    11  GLU11       0.0429
     18  CG       -16.7640   65.9750    6.1770 C.3    11  GLU11       0.1163
     19  CD       -15.6930   65.0810    6.7950 C.2    11  GLU11       0.3649
     20  OE1      -14.5630   65.5700    7.0340 O.co2  11  GLU11      -0.2457
     21  OE2      -15.9820   63.8910    7.0560 O.co2  11  GLU11      -0.2457
     22  N        -16.3030   68.3140    2.4400 N.am   12  LYS12      -0.1977
     23  CA       -15.7160   69.0170    1.2950 C.3    12  LYS12       0.1596
     24  C        -16.5470   70.2340    0.8780 C.2    12  LYS12       0.2287
     25  O        -17.7750   70.2860    1.0900 O.2    12  LYS12      -0.2864
     26  CB       -15.5650   68.0750    0.0980 C.3    12  LYS12       0.0298
     27  CG       -14.5340   66.9710    0.2720 C.3    12  LYS12       0.0038
     28  CD       -15.1110   65.7030    0.9170 C.3    12  LYS12       0.0206
     29  CE       -14.1360   64.5380    0.8010 C.3    12  LYS12       0.1093
     30  NZ       -14.6200   63.2990    1.4830 N.3    12  LYS12      -0.1314
     31  N        -28.0750   66.1210   -5.6950 N.3    95  HIS95      -0.1241
     32  CA       -26.7120   65.7200   -5.5100 C.3    95  HIS95       0.1621
     33  C        -26.4030   64.4220   -6.2490 C.2    95  HIS95       0.2264
     34  O        -25.4370   64.3460   -7.0070 O.2    95  HIS95      -0.2867
     35  CB       -26.4050   65.5810   -4.0260 C.3    95  HIS95       0.0745
     36  CG       -24.9500   65.4780   -3.7490 C.ar   95  HIS95       0.0817
     37  ND1      -24.1210   66.5760   -3.7410 N.ar   95  HIS95      -0.2268
     38  CD2      -24.1630   64.4050   -3.5280 C.ar   95  HIS95       0.1154
     39  CE1      -22.8850   66.1830   -3.4990 C.ar   95  HIS95       0.1986
     40  NE2      -22.8830   64.8700   -3.3740 N.ar   95  HIS95      -0.2212
     41  N        -23.9280   63.1650   -9.5370 N.3    99  HIS99      -0.1241
     42  CA       -22.9350   62.1140   -9.5710 C.3    99  HIS99       0.1621
     43  C        -23.1380   61.3120  -10.8130 C.2    99  HIS99       0.2264
     44  O        -22.2460   61.2350  -11.6310 O.2    99  HIS99      -0.2867
     45  CB       -23.0330   61.1970   -8.3570 C.3    99  HIS99       0.0745
     46  CG       -22.1580   61.6030   -7.2080 C.ar   99  HIS99       0.0817
     47  ND1      -20.7820   61.6580   -7.2980 N.ar   99  HIS99      -0.2268
     48  CD2      -22.4650   61.9470   -5.9330 C.ar   99  HIS99       0.1154
     49  CE1      -20.2820   62.0360   -6.1330 C.ar   99  HIS99       0.1986
     50  NE2      -21.2830   62.2210   -5.2890 N.ar   99  HIS99      -0.2212
     51  N        -24.0480   54.2340   -6.0200 N.3   116  TYR116     -0.1241
     52  CA       -23.5020   55.4730   -5.5120 C.3   116  TYR116      0.1605
     53  C        -23.1530   55.2370   -4.0640 C.2   116  TYR116      0.2264
     54  O        -24.0280   55.0180   -3.2250 O.2   116  TYR116     -0.2867
     55  CB       -24.5050   56.6070   -5.7370 C.3   116  TYR116      0.0534
     56  CG       -24.3100   57.8930   -4.9640 C.ar  116  TYR116     -0.0201
     57  CD1      -23.0500   58.3140   -4.5460 C.ar  116  TYR116     -0.0009
     58  CD2      -25.4140   58.7220   -4.6950 C.ar  116  TYR116     -0.0009
     59  CE1      -22.9010   59.5160   -3.8360 C.ar  116  TYR116      0.0417
     60  CE2      -25.2840   59.9200   -3.9940 C.ar  116  TYR116      0.0417
     61  CZ       -24.0310   60.3170   -3.5700 C.ar  116  TYR116      0.1957
     62  OH       -23.9110   61.5020   -2.8750 O.3   116  TYR116     -0.2866
     63  N        -20.6140   56.4760   -0.7640 N.3   118  SER118     -0.1202
     64  CA       -19.7850   57.4850   -0.1300 C.3   118  SER118      0.2020
     65  C        -19.9800   57.4840    1.3810 C.2   118  SER118      0.2619
     66  O        -20.4970   56.5260    1.9450 O.2   118  SER118     -0.2717
     67  CB       -20.1250   58.8500   -0.6900 C.3   118  SER118      0.2103
     68  OG       -21.4140   59.2410   -0.2600 O.3   118  SER118     -0.2182
     69  N        -19.5680   58.5710    2.0240 N.am  119  GLY119     -0.1942
     70  CA       -19.6940   58.7250    3.4620 C.3   119  GLY119      0.2014
     71  C        -21.1310   58.8340    3.9210 C.2   119  GLY119      0.2639
     72  O        -21.5090   58.2560    4.9360 O.2   119  GLY119     -0.2714
     73  N        -21.9340   59.5720    3.1620 N.am  120  GLY120     -0.1939
     74  CA       -23.3310   59.8120    3.5220 C.3   120  GLY120      0.2014
     75  C        -24.3850   59.1810    2.6180 C.2   120  GLY120      0.2638
     76  O        -25.5790   59.3580    2.8420 O.2   120  GLY120     -0.2714
     77  N        -23.9700   58.4460    1.5980 N.am  121  ASN121     -0.1972
     78  CA       -24.9530   57.8000    0.7410 C.3   121  ASN121      0.1688
     79  C        -24.5800   56.3940    0.3210 C.2   121  ASN121      0.2292
     80  O        -23.4000   56.0790    0.2150 O.2   121  ASN121     -0.2864
     81  CB       -25.2870   58.6870   -0.4680 C.3   121  ASN121      0.1181
     82  CG       -26.4010   59.6860   -0.1680 C.2   121  ASN121      0.2629
     83  OD1      -26.2260   60.8900   -0.3480 O.2   121  ASN121     -0.2716
     84  ND2      -27.5560   59.1830    0.2990 N.am  121  ASN121     -0.0877
     85  N        -19.4910   54.3720    3.4740 N.3   144  GLY144     -0.1225
     86  CA       -18.4880   55.3910    3.8020 C.3   144  GLY144      0.1811
     87  C        -18.4640   55.6490    5.3000 C.2   144  GLY144      0.2280
     88  O        -17.4050   55.6670    5.9260 O.2   144  GLY144     -0.2866
     89  N        -17.4000   52.5070    7.4850 N.3   147  LEU147     -0.1231
     90  CA       -15.9360   52.4860    7.3950 C.3   147  LEU147      0.1693
     91  C        -15.2330   53.5050    8.2800 C.2   147  LEU147      0.2592
     92  O        -14.4100   53.1460    9.1140 O.2   147  LEU147     -0.2718
     93  CB       -15.4900   52.7080    5.9560 C.3   147  LEU147      0.0284
     94  CG       -15.7410   51.5670    4.9870 C.3   147  LEU147      0.0019
     95  CD1      -15.4170   52.0280    3.5960 C.3   147  LEU147      0.0001
     96  CD2      -14.9280   50.3700    5.3570 C.3   147  LEU147      0.0001
     97  N        -15.5440   54.7760    8.0770 N.am  148  ASP148     -0.1974
     98  CA       -14.9890   55.8430    8.9110 C.3   148  ASP148      0.1709
     99  C        -15.2010   55.5360   10.4050 C.2   148  ASP148      0.2293
    100  O        -14.2440   55.5350   11.1790 O.2   148  ASP148     -0.2864
    101  CB       -15.5850   57.2180    8.5510 C.3   148  ASP148      0.1436
    102  CG       -15.3970   57.5870    7.0770 C.2   148  ASP148      0.3671
    103  OD1      -16.2500   58.3340    6.5470 O.co2 148  ASP148     -0.2456
    104  OD2      -14.4120   57.1320    6.4440 O.co2 148  ASP148     -0.2456
    105  N         -9.8400   60.3200    6.8200 N.3   159  PRO159     -0.2116
    106  CA       -10.9060   59.8740    5.9620 C.3   159  PRO159      0.1372
    107  C        -10.6320   58.3540    5.9430 C.2   159  PRO159      0.2244
    108  O         -9.7970   57.8810    5.1620 O.2   159  PRO159     -0.2868
    109  CB       -10.5630   60.5440    4.6300 C.3   159  PRO159      0.0268
    110  CG        -9.0010   60.6970    4.6720 C.3   159  PRO159      0.0207
    111  CD        -8.5630   60.2530    6.1000 C.3   159  PRO159      0.0892
    112  N        -11.2130   55.5670    4.8570 N.3   161  GLY161     -0.1210
    113  CA       -11.3390   54.6380    3.7330 C.3   161  GLY161      0.1940
    114  C        -10.0480   53.9990    3.2730 C.2   161  GLY161      0.2453
    115  O         -9.9200   52.7720    3.3110 O.2   161  GLY161     -0.2732
    116  N         -9.0920   54.8220    2.8010 N.am  162  PRO162     -0.2728
    117  CA        -7.7830   54.3450    2.3510 C.3   162  PRO162      0.1401
    118  C         -7.0180   53.4770    3.3620 C.2   162  PRO162      0.2269
    119  O         -6.4700   52.4460    2.9810 O.2   162  PRO162     -0.2865
    120  CB        -7.0350   55.6410    2.0540 C.3   162  PRO162      0.0296
    121  CG        -8.1090   56.5920    1.6780 C.3   162  PRO162      0.0237
    122  CD        -9.2210   56.2760    2.6140 C.3   162  PRO162      0.0939
    123  N         -8.2110   51.5820    5.9390 N.3   164  ILE164     -0.1231
    124  CA        -8.8210   50.2680    6.1500 C.3   164  ILE164      0.1692
    125  C         -8.4720   49.3410    4.9990 C.2   164  ILE164      0.2591
    126  O         -8.3610   48.1380    5.1840 O.2   164  ILE164     -0.2718
    127  CB       -10.3850   50.3080    6.3740 C.3   164  ILE164      0.0266
    128  CG1      -11.1150   51.0210    5.2280 C.3   164  ILE164      0.0019
    129  CG2      -10.7570   50.9940    7.6820 C.3   164  ILE164      0.0020
    130  CD1      -11.5560   50.1230    4.0430 C.3   164  ILE164      0.0001
    131  N         -8.2920   49.9090    3.8120 N.am  165  GLU165     -0.1979
    132  CA        -8.0980   49.0950    2.6230 C.3   165  GLU165      0.1602
    133  C         -6.6670   48.6300    2.5220 C.2   165  GLU165      0.2287
    134  O         -6.4070   47.5070    2.0840 O.2   165  GLU165     -0.2864
    135  CB        -8.4920   49.8610    1.3710 C.3   165  GLU165      0.0415
    136  CG        -8.1400   49.1460    0.0730 C.3   165  GLU165      0.1163
    137  CD        -8.2050   50.0530   -1.1410 C.2   165  GLU165      0.3649
    138  OE1       -8.5330   51.2540   -1.0100 O.co2 165  GLU165     -0.2457
    139  OE2       -7.9250   49.5550   -2.2440 O.co2 165  GLU165     -0.2457
    140  N        -18.5170   45.0370    0.9690 N.3   217  PHE217     -0.1241
    141  CA       -18.4760   45.1090   -0.4940 C.3   217  PHE217      0.1605
    142  C        -19.3370   44.0410   -1.1580 C.2   217  PHE217      0.2264
    143  O        -20.0600   44.3450   -2.1180 O.2   217  PHE217     -0.2867
    144  CB       -17.0430   45.0890   -1.0380 C.3   217  PHE217      0.0534
    145  CG       -16.2000   46.2740   -0.6180 C.ar  217  PHE217     -0.0203
    146  CD1      -16.7700   47.4220   -0.0920 C.ar  217  PHE217     -0.0042
    147  CD2      -14.8180   46.2430   -0.7660 C.ar  217  PHE217     -0.0042
    148  CE1      -15.9530   48.5040    0.2950 C.ar  217  PHE217     -0.0003
    149  CE2      -14.0150   47.3340   -0.3890 C.ar  217  PHE217     -0.0003
    150  CZ       -14.5750   48.4530    0.1380 C.ar  217  PHE217     -0.0000
    151  N        -17.1990   58.8270   -3.3870 N.3   241  GLY241     -0.1210
    152  CA       -15.9010   58.7120   -2.7540 C.3   241  GLY241      0.1956
    153  C        -15.4380   57.3050   -2.4160 C.2   241  GLY241      0.2611
    154  O        -14.2280   57.0620   -2.3530 O.2   241  GLY241     -0.2717
    155  N        -16.3700   56.3730   -2.1970 N.am  242  VAL242     -0.1979
    156  CA       -15.9910   55.0010   -1.8360 C.3   242  VAL242      0.1595
    157  C        -15.5360   54.2470   -3.0720 C.2   242  VAL242      0.2287
    158  O        -14.9950   53.1500   -2.9680 O.2   242  VAL242     -0.2864
    159  CB       -17.1310   54.2380   -1.1290 C.3   242  VAL242      0.0276
    160  CG1      -16.6740   52.8570   -0.7010 C.3   242  VAL242      0.0022
    161  CG2      -17.5720   54.9850    0.0830 C.3   242  VAL242      0.0022
    162  N        -13.1990   54.9060   -4.8310 N.3   244  ALA244     -0.1231
    163  CA       -11.7400   54.9530   -4.8350 C.3   244  ALA244      0.1694
    164  C        -11.1460   53.5940   -4.4800 C.2   244  ALA244      0.2592
    165  O        -10.0070   53.2870   -4.8390 O.2   244  ALA244     -0.2718
    166  CB       -11.2420   56.0260   -3.8750 C.3   244  ALA244      0.0304
    167  N        -11.9310   52.7770   -3.7890 N.am  245  ASN245     -0.1974
    168  CA       -11.4890   51.4770   -3.3510 C.3   245  ASN245      0.1688
    169  C        -11.2110   50.5250   -4.5130 C.2   245  ASN245      0.2292
    170  O        -12.1180   50.2220   -5.2910 O.2   245  ASN245     -0.2864
    171  CB       -12.5460   50.8780   -2.4470 C.3   245  ASN245      0.1181
    172  CG       -11.9960   49.8030   -1.5800 C.2   245  ASN245      0.2629
    173  OD1      -11.8530   48.6550   -2.0070 O.2   245  ASN245     -0.2716
    174  ND2      -11.6660   50.1570   -0.3490 N.am  245  ASN245     -0.0877
    175  N        -15.6100   61.7780   -6.3640 N.3   272  GLY272     -0.1210
    176  CA       -16.0870   62.2830   -5.0800 C.3   272  GLY272      0.1956
    177  C        -16.7740   63.6150   -5.2870 C.2   272  GLY272      0.2611
    178  O        -17.1110   63.9790   -6.4170 O.2   272  GLY272     -0.2717
    179  N        -16.9680   64.3460   -4.1930 N.am  273  ASP273     -0.1973
    180  CA       -17.5860   65.6690   -4.2350 C.3   273  ASP273      0.1709
    181  C        -16.8130   66.6120   -5.1320 C.2   273  ASP273      0.2293
    182  O        -15.5840   66.5700   -5.1530 O.2   273  ASP273     -0.2864
    183  CB       -17.6710   66.2630   -2.8250 C.3   273  ASP273      0.1436
    184  CG       -18.8400   65.7100   -2.0240 C.2   273  ASP273      0.3671
    185  OD1      -19.9000   65.4320   -2.6340 O.co2 273  ASP273     -0.2456
    186  OD2      -18.7060   65.5710   -0.7810 O.co2 273  ASP273     -0.2456
@<TRIPOS>BOND
     1    44    43    2
     2    43    42    1
     3    42    41    1
     4    42    45    1
     5    45    46    1
     6    47    46   ar
     7    47    49   ar
     8    46    48   ar
     9    34    33    2
    10   178   177    2
    11   175   176    1
    12    33    32    1
    13    49    50   ar
    14    51    52    1
    15    48    50   ar
    16    55    52    1
    17    55    56    1
    18    31    32    1
    19    52    53    1
    20    32    35    1
    21   170   169    2
    22   177   176    1
    23   177   179   am
    24   182   181    2
    25   181   180    1
    26    56    58   ar
    27    56    57   ar
    28   165   164    2
    29   163   162    1
    30   163   164    1
    31   163   166    1
    32    58    60   ar
    33    57    59   ar
    34   169   168    1
    35   164   167   am
    36   180   179    1
    37   180   183    1
    38    53    54    2
    39    35    36    1
    40    60    61   ar
    41    59    61   ar
    42   167   168    1
    43    36    37   ar
    44    36    38   ar
    45    37    39   ar
    46    61    62    1
    47    38    40   ar
    48    39    40   ar
    49   151   152    1
    50   168   171    1
    51   157   158    2
    52   157   156    1
    53   183   184    1
    54   152   153    1
    55   185   184   ar
    56   171   172    1
    57   153   154    2
    58   153   155   am
    59   139   137   ar
    60   155   156    1
    61   143   142    2
    62   184   186   ar
    63   173   172    2
    64   156   159    1
    65   172   174   am
    66   142   141    1
    67   137   138   ar
    68   137   136    1
    69   159   160    1
    70   159   161    1
    71   144   145    1
    72   144   141    1
    73     7     5    1
    74   147   145   ar
    75   147   149   ar
    76    63    64    1
    77    67    68    1
    78    67    64    1
    79   145   146   ar
    80   141   140    1
    81    81    82    1
    82    81    78    1
    83   149   150   ar
    84    83    82    2
    85    82    84   am
    86    64    65    1
    87   146   148   ar
    88   136   135    1
    89    26    27    1
    90    26    23    1
    91   150   148   ar
    92    80    79    2
    93    27    28    1
    94    79    78    1
    95     6     5    1
    96     5     2    1
    97     1     2    1
    98    78    77    1
    99    29    28    1
   100    29    30    1
   101    24    25    2
   102    24    23    1
   103    23    22    1
   104   135   132    1
   105    65    66    2
   106    65    69   am
   107     2     3    1
   108    77    75   am
   109   121   120    1
   110   121   122    1
   111    69    70    1
   112   120   117    1
   113   134   133    2
   114   117   116    1
   115   117   118    1
   116    22    15   am
   117   133   132    1
   118   122   116    1
   119    75    76    2
   120    75    74    1
   121   132   131    1
   122     3     8   am
   123     3     4    2
   124   116   114   am
   125     8     9    1
   126   119   118    2
   127    73    74    1
   128    73    71   am
   129   114   115    2
   130   114   113    1
   131    70    71    1
   132    85    86    1
   133    95    94    1
   134    15    16    2
   135    15    14    1
   136   113   112    1
   137    86    87    1
   138   131   125   am
   139    71    72    2
   140    12     9    1
   141   130   128    1
   142     9    10    1
   143    13    10   am
   144    13    14    1
   145    10    11    2
   146   109   110    1
   147   109   106    1
   148   110   111    1
   149    14    17    1
   150    94    96    1
   151    94    93    1
   152   125   126    2
   153   125   124    1
   154    17    18    1
   155   108   107    2
   156   128   127    1
   157    87    88    2
   158   123   124    1
   159   107   106    1
   160    93    90    1
   161   106   105    1
   162   111   105    1
   163   124   127    1
   164    18    19    1
   165   127   129    1
   166   104   102   ar
   167   103   102   ar
   168    19    20   ar
   169    19    21   ar
   170   102   101    1
   171    90    89    1
   172    90    91    1
   173    97    91   am
   174    97    98    1
   175    91    92    2
   176   101    98    1
   177    98    99    1
   178    99   100    2
