@<TRIPOS>MOLECULE
tmp/2vwcA00.pdb
 171 160 0 0 0
SMALL
GASTEIGER

@<TRIPOS>ATOM
      1  N        -19.9700   25.7700   -0.0410 N.3    33  LEU33      -0.1245
      2  CA       -18.8590   26.6080   -0.4910 C.3    33  LEU33       0.1561
      3  C        -18.2710   26.0950   -1.7900 C.2    33  LEU33       0.2260
      4  O        -17.8200   26.8800   -2.6130 O.2    33  LEU33      -0.2867
      5  CB       -17.7720   26.7350    0.5710 C.3    33  LEU33       0.0270
      6  CG       -18.1940   27.3460    1.9070 C.3    33  LEU33       0.0019
      7  CD1      -16.9490   27.5570    2.7490 C.3    33  LEU33       0.0001
      8  CD2      -19.0690   28.6640    1.7850 C.3    33  LEU33       0.0001
      9  N        -20.1620   24.5300   -4.0420 N.3    35  SER35      -0.1202
     10  CA       -21.2130   24.9140   -4.9930 C.3    35  SER35       0.2020
     11  C        -21.0690   26.3640   -5.4630 C.2    35  SER35       0.2619
     12  O        -21.1590   26.6380   -6.6660 O.2    35  SER35      -0.2717
     13  CB       -22.6020   24.7050   -4.3870 C.3    35  SER35       0.2103
     14  OG       -23.6030   25.1870   -5.2660 O.3    35  SER35      -0.2182
     15  N        -20.8520   27.2860   -4.5160 N.am   36  ASN36      -0.1960
     16  CA       -20.6130   28.6930   -4.8410 C.3    36  ASN36       0.1819
     17  C        -19.3620   28.8640   -5.7010 C.2    36  ASN36       0.2621
     18  O        -19.3480   29.6660   -6.6440 O.2    36  ASN36      -0.2715
     19  CB       -20.4070   29.5210   -3.5700 C.3    36  ASN36       0.1195
     20  CG       -21.6280   29.5640   -2.6760 C.2    36  ASN36       0.2630
     21  OD1      -21.5460   30.0620   -1.5460 O.2    36  ASN36      -0.2716
     22  ND2      -22.7620   29.0690   -3.1650 N.am   36  ASN36      -0.0877
     23  N        -18.3030   28.1220   -5.3470 N.am   37  ALA37      -0.1977
     24  CA       -17.0360   28.1580   -6.0900 C.3    37  ALA37       0.1597
     25  C        -17.2880   27.6890   -7.5170 C.2    37  ALA37       0.2287
     26  O        -16.7870   28.2880   -8.4600 O.2    37  ALA37      -0.2864
     27  CB       -15.9650   27.2750   -5.4140 C.3    37  ALA37       0.0319
     28  N        -20.2150   27.7910   -9.0450 N.3    39  ASP39      -0.1225
     29  CA       -21.0110   28.8380   -9.7010 C.3    39  ASP39       0.1805
     30  C        -20.1010   29.9680  -10.2240 C.2    39  ASP39       0.2597
     31  O        -20.3040   30.4840  -11.3280 O.2    39  ASP39      -0.2718
     32  CB       -22.0770   29.3890   -8.7590 C.3    39  ASP39       0.1424
     33  CG       -22.9400   30.4980   -9.3990 C.2    39  ASP39       0.3668
     34  OD1      -23.7520   30.2020  -10.3040 O.co2  39  ASP39      -0.2456
     35  OD2      -22.8280   31.6680   -8.9770 O.co2  39  ASP39      -0.2456
     36  N        -19.0740   30.3160   -9.4580 N.am   40  ALA40      -0.1979
     37  CA       -18.1900   31.4120   -9.8470 C.3    40  ALA40       0.1597
     38  C        -17.3020   31.0090  -11.0220 C.2    40  ALA40       0.2287
     39  O        -16.9310   31.8460  -11.8640 O.2    40  ALA40      -0.2864
     40  CB       -17.3520   31.8760   -8.6540 C.3    40  ALA40       0.0319
     41  N        -19.5530   31.1230  -14.2690 N.3    43  LYS43      -0.1245
     42  CA       -19.7240   32.4950  -14.7330 C.3    43  LYS43       0.1561
     43  C        -18.5390   32.9710  -15.5630 C.2    43  LYS43       0.2260
     44  O        -18.7390   33.5450  -16.6200 O.2    43  LYS43      -0.2867
     45  CB       -19.9750   33.4750  -13.5710 C.3    43  LYS43       0.0271
     46  CG       -21.1850   33.1620  -12.6910 C.3    43  LYS43       0.0035
     47  CD       -22.4940   33.6000  -13.2750 C.3    43  LYS43       0.0206
     48  CE       -23.6500   33.3490  -12.2910 C.3    43  LYS43       0.1093
     49  NZ       -23.3580   33.9140  -10.9260 N.3    43  LYS43      -0.1314
     50  N        -11.2870   29.4140   -5.4050 N.3    78  ASP78      -0.1239
     51  CA       -11.6910   29.1120   -6.7570 C.3    78  ASP78       0.1674
     52  C        -11.0580   30.1550   -7.6720 C.2    78  ASP78       0.2266
     53  O        -10.7780   31.2820   -7.2560 O.2    78  ASP78      -0.2867
     54  CB       -13.2310   29.1260   -6.8850 C.3    78  ASP78       0.1410
     55  CG       -13.8210   30.4980   -6.6380 C.2    78  ASP78       0.3668
     56  OD1      -14.3920   30.7160   -5.5430 O.co2  78  ASP78      -0.2456
     57  OD2      -13.6820   31.3830   -7.5190 O.co2  78  ASP78      -0.2456
     58  N        -15.0670   33.9710  -11.3230 N.3    81  ILE81      -0.1231
     59  CA       -15.1850   35.3380  -11.7930 C.3    81  ILE81       0.1692
     60  C        -14.6560   36.3770  -10.7810 C.2    81  ILE81       0.2593
     61  O        -14.2150   37.4690  -11.1780 O.2    81  ILE81      -0.2718
     62  CB       -16.6580   35.6300  -12.2250 C.3    81  ILE81       0.0266
     63  CG1      -16.7980   36.9860  -12.9200 C.3    81  ILE81       0.0019
     64  CG2      -17.6290   35.4820  -11.0360 C.3    81  ILE81       0.0020
     65  CD1      -17.9950   37.0460  -13.8230 C.3    81  ILE81       0.0001
     66  N        -14.6820   36.0310   -9.4880 N.am   82  GLY82      -0.1942
     67  CA       -14.3070   36.9800   -8.4340 C.3    82  GLY82       0.2014
     68  C        -15.3750   38.0540   -8.2470 C.2    82  GLY82       0.2638
     69  O        -16.3750   38.0790   -8.9670 O.2    82  GLY82      -0.2714
     70  N        -15.1740   38.9310   -7.2650 N.am   83  MET83      -0.1976
     71  CA       -16.1320   39.9900   -6.9630 C.3    83  MET83       0.1605
     72  C        -15.4030   41.3190   -6.8240 C.2    83  MET83       0.2287
     73  O        -14.3280   41.3810   -6.2210 O.2    83  MET83      -0.2864
     74  CB       -16.9010   39.6830   -5.6740 C.3    83  MET83       0.0413
     75  CG       -17.9630   38.5560   -5.8190 C.3    83  MET83       0.0598
     76  SD       -18.5650   37.9330   -4.2200 S.3    83  MET83      -0.1393
     77  CE       -17.1030   37.0540   -3.6670 C.3    83  MET83       0.0692
     78  N        -19.5240   44.7130   -5.3510 N.3    87  GLU87      -0.1245
     79  CA       -20.1810   43.4060   -5.2270 C.3    87  GLU87       0.1567
     80  C        -20.0440   42.8090   -3.8340 C.2    87  GLU87       0.2260
     81  O        -21.0220   42.3280   -3.2820 O.2    87  GLU87      -0.2867
     82  CB       -19.6760   42.4260   -6.2890 C.3    87  GLU87       0.0388
     83  CG       -20.2750   42.7050   -7.6420 C.3    87  GLU87       0.1160
     84  CD       -19.5940   41.9710   -8.7770 C.2    87  GLU87       0.3649
     85  OE1      -18.3680   41.7580   -8.7440 O.co2  87  GLU87      -0.2457
     86  OE2      -20.2980   41.6330   -9.7410 O.co2  87  GLU87      -0.2457
     87  N        -23.5960   42.4800   -2.3370 N.3    91  ASN91      -0.1225
     88  CA       -23.9940   41.0740   -2.3840 C.3    91  ASN91       0.1785
     89  C        -23.6460   40.2680   -1.1310 C.2    91  ASN91       0.2597
     90  O        -24.1850   39.1760   -0.9140 O.2    91  ASN91      -0.2718
     91  CB       -23.4070   40.4350   -3.6380 C.3    91  ASN91       0.1169
     92  CG       -24.1320   40.8800   -4.9020 C.2    91  ASN91       0.2627
     93  OD1      -25.1920   40.3420   -5.2310 O.2    91  ASN91      -0.2716
     94  ND2      -23.5730   41.8670   -5.6130 N.am   91  ASN91      -0.0877
     95  N        -22.7570   40.7980   -0.2980 N.am   92  LEU92      -0.1980
     96  CA       -22.4130   40.0990    0.9440 C.3    92  LEU92       0.1596
     97  C        -22.8080   40.8540    2.2050 C.2    92  LEU92       0.2287
     98  O        -22.0560   40.8650    3.1810 O.2    92  LEU92      -0.2864
     99  CB       -20.9250   39.7120    0.9950 C.3    92  LEU92       0.0297
    100  CG       -20.3810   38.4880    0.2480 C.3    92  LEU92       0.0022
    101  CD1      -18.8580   38.4090    0.4460 C.3    92  LEU92       0.0001
    102  CD2      -21.0680   37.1690    0.6940 C.3    92  LEU92       0.0001
    103  N        -31.5810   39.9900    1.0580 N.3    97  LYS97      -0.1245
    104  CA       -31.6580   38.8650    0.1390 C.3    97  LYS97       0.1561
    105  C        -33.0330   38.2400    0.1590 C.2    97  LYS97       0.2260
    106  O        -33.6570   38.0910    1.2150 O.2    97  LYS97      -0.2867
    107  CB       -30.5530   37.8330    0.3770 C.3    97  LYS97       0.0271
    108  CG       -29.2660   38.1820   -0.3540 C.3    97  LYS97       0.0035
    109  CD       -28.5020   36.9260   -0.7910 C.3    97  LYS97       0.0206
    110  CE       -27.9120   37.0860   -2.2200 C.3    97  LYS97       0.1093
    111  NZ       -27.0370   38.3320   -2.4390 N.3    97  LYS97      -0.1314
    112  N        -30.8680   30.2060   -1.4470 N.3   120  GLY120     -0.1210
    113  CA       -29.9690   31.1710   -2.0630 C.3   120  GLY120      0.1956
    114  C        -29.0790   31.9060   -1.0790 C.2   120  GLY120      0.2612
    115  O        -28.5530   32.9970   -1.3780 O.2   120  GLY120     -0.2717
    116  N        -28.8650   31.2950    0.0820 N.am  121  VAL121     -0.1965
    117  CA       -28.2590   32.0080    1.1830 C.3   121  VAL121      0.1727
    118  C        -27.2140   31.1010    1.8800 C.2   121  VAL121      0.2617
    119  O        -26.8270   31.3080    3.0360 O.2   121  VAL121     -0.2715
    120  CB       -29.4340   32.6040    2.0400 C.3   121  VAL121      0.0290
    121  CG1      -29.9600   31.6460    3.1260 C.3   121  VAL121      0.0023
    122  CG2      -29.1260   34.0140    2.5270 C.3   121  VAL121      0.0023
    123  N        -26.7340   30.1070    1.1210 N.am  122  GLY122     -0.1940
    124  CA       -25.8290   29.0640    1.6070 C.3   122  GLY122      0.2014
    125  C        -24.4160   29.4810    1.9880 C.2   122  GLY122      0.2639
    126  O        -23.7280   28.7630    2.7320 O.2   122  GLY122     -0.2714
    127  N        -23.9590   30.6220    1.4800 N.am  123  PHE123     -0.1959
    128  CA       -22.6830   31.1880    1.9090 C.3   123  PHE123      0.1771
    129  C        -22.6130   31.2310    3.4360 C.2   123  PHE123      0.2619
    130  O        -21.5780   30.8790    4.0150 O.2   123  PHE123     -0.2715
    131  CB       -22.4860   32.6010    1.3250 C.3   123  PHE123      0.0574
    132  CG       -21.3630   33.3880    1.9640 C.ar  123  PHE123     -0.0200
    133  CD1      -20.0390   33.2090    1.5460 C.ar  123  PHE123     -0.0042
    134  CD2      -21.6270   34.3110    2.9730 C.ar  123  PHE123     -0.0042
    135  CE1      -18.9780   33.9520    2.1310 C.ar  123  PHE123     -0.0003
    136  CE2      -20.5790   35.0490    3.5770 C.ar  123  PHE123     -0.0003
    137  CZ       -19.2510   34.8820    3.1410 C.ar  123  PHE123     -0.0000
    138  N        -23.7100   31.6550    4.0780 N.am  124  TYR124     -0.1974
    139  CA       -23.7400   31.8290    5.5380 C.3   124  TYR124      0.1639
    140  C        -23.6660   30.5260    6.3630 C.2   124  TYR124      0.2290
    141  O        -23.5340   30.5830    7.5920 O.2   124  TYR124     -0.2864
    142  CB       -24.9210   32.7370    5.9670 C.3   124  TYR124      0.0560
    143  CG       -24.8080   34.1250    5.3470 C.ar  124  TYR124     -0.0198
    144  CD1      -25.4380   34.4210    4.1380 C.ar  124  TYR124     -0.0009
    145  CD2      -24.0130   35.1120    5.9360 C.ar  124  TYR124     -0.0009
    146  CE1      -25.3080   35.6700    3.5400 C.ar  124  TYR124      0.0417
    147  CE2      -23.8620   36.3640    5.3450 C.ar  124  TYR124      0.0417
    148  CZ       -24.5220   36.6390    4.1430 C.ar  124  TYR124      0.1957
    149  OH       -24.4000   37.8810    3.5480 O.3   124  TYR124     -0.2866
    150  N        -13.3050   36.9570    3.1670 N.3   135  VAL135     -0.1245
    151  CA       -13.5270   36.6640    1.7600 C.3   135  VAL135      0.1561
    152  C        -12.5750   37.5760    1.0050 C.2   135  VAL135      0.2260
    153  O        -12.6900   38.8090    1.0680 O.2   135  VAL135     -0.2867
    154  CB       -15.0100   36.8880    1.3330 C.3   135  VAL135      0.0252
    155  CG1      -15.1670   36.7730   -0.1770 C.3   135  VAL135      0.0019
    156  CG2      -15.9060   35.8840    2.0230 C.3   135  VAL135      0.0019
    157  N        -11.6460   33.9100   -5.8620 N.3   170  THR170     -0.1218
    158  CA       -11.9710   34.1910   -4.4760 C.3   170  THR170      0.1862
    159  C        -11.3680   33.1770   -3.5210 C.2   170  THR170      0.2287
    160  O        -11.2870   31.9780   -3.8370 O.2   170  THR170     -0.2866
    161  CB       -13.4990   34.1880   -4.2850 C.3   170  THR170      0.1770
    162  OG1      -14.0780   35.2160   -5.1040 O.3   170  THR170     -0.2211
    163  CG2      -13.8740   34.4400   -2.8170 C.3   170  THR170      0.0375
    164  N        -12.1540   31.9320    0.3750 N.3   172  LEU172     -0.1245
    165  CA       -12.8470   31.9320    1.6370 C.3   172  LEU172      0.1561
    166  C        -11.8980   31.4000    2.6870 C.2   172  LEU172      0.2260
    167  O        -11.4740   30.2450    2.6310 O.2   172  LEU172     -0.2867
    168  CB       -14.1170   31.0870    1.5540 C.3   172  LEU172      0.0270
    169  CG       -15.3500   31.9530    1.2720 C.3   172  LEU172      0.0019
    170  CD1      -15.4780   32.3400   -0.2110 C.3   172  LEU172      0.0001
    171  CD2      -16.5690   31.2390    1.7230 C.3   172  LEU172      0.0001
@<TRIPOS>BOND
     1    44    43    2
     2    43    42    1
     3    42    41    1
     4    42    45    1
     5    65    63    1
     6    45    46    1
     7    47    46    1
     8    47    48    1
     9    63    62    1
    10    48    49    1
    11    62    59    1
    12    62    64    1
    13    39    38    2
    14    59    58    1
    15    59    60    1
    16    31    30    2
    17    61    60    2
    18    38    37    1
    19    60    66   am
    20    34    33   ar
    21    30    29    1
    22    30    36   am
    23    37    36    1
    24    37    40    1
    25    86    84   ar
    26    29    28    1
    27    29    32    1
    28    66    67    1
    29    33    35   ar
    30    33    32    1
    31    69    68    2
    32    84    85   ar
    33    84    83    1
    34    26    25    2
    35    67    68    1
    36    68    70   am
    37    52    53    2
    38    52    51    1
    39    83    82    1
    40    57    55   ar
    41    25    24    1
    42    70    71    1
    43    71    72    1
    44    71    74    1
    45    54    51    1
    46    54    55    1
    47    72    73    2
    48    51    50    1
    49    12    11    2
    50    18    17    2
    51    55    56   ar
    52    82    79    1
    53    24    27    1
    54    24    23    1
    55   157   158    1
    56    75    74    1
    57    75    76    1
    58    17    23   am
    59    17    16    1
    60    94    92   am
    61    11    10    1
    62    11    15   am
    63    78    79    1
    64    14    13    1
    65    93    92    2
    66    79    80    1
    67   162   161    1
    68    10    13    1
    69    10     9    1
    70    92    91    1
    71    16    15    1
    72    16    19    1
    73   158   161    1
    74   158   159    1
    75   161   163    1
    76    76    77    1
    77   160   159    2
    78    80    81    2
    79    91    88    1
    80    19    20    1
    81    22    20   am
    82    20    21    2
    83     4     3    2
    84   111   110    1
    85    88    87    1
    86    88    89    1
    87   110   109    1
    88   113   112    1
    89   113   114    1
    90     3     2    1
    91   115   114    2
    92    89    90    2
    93    89    95   am
    94   114   116   am
    95   109   108    1
    96     2     1    1
    97     2     5    1
    98   108   107    1
    99    95    96    1
   100   170   169    1
   101   155   154    1
   102   116   117    1
   103   104   105    1
   104   104   107    1
   105   104   103    1
   106   105   106    2
   107   100   101    1
   108   100   102    1
   109   100    99    1
   110   164   165    1
   111     5     6    1
   112    96    99    1
   113    96    97    1
   114   152   153    2
   115   152   151    1
   116   123   124    1
   117   123   118   am
   118   117   118    1
   119   117   120    1
   120   169   168    1
   121   169   171    1
   122   131   128    1
   123   131   132    1
   124   154   151    1
   125   154   156    1
   126   127   128    1
   127   127   125   am
   128   133   132   ar
   129   133   135   ar
   130   168   165    1
   131   124   125    1
   132   165   166    1
   133   151   150    1
   134     8     6    1
   135   118   119    2
   136     6     7    1
   137   128   129    1
   138   132   134   ar
   139   125   126    2
   140   120   122    1
   141   120   121    1
   142   135   137   ar
   143    97    98    2
   144   167   166    2
   145   134   136   ar
   146   137   136   ar
   147   129   130    2
   148   129   138   am
   149   146   144   ar
   150   146   148   ar
   151   149   148    1
   152   138   139    1
   153   144   143   ar
   154   148   147   ar
   155   147   145   ar
   156   143   145   ar
   157   143   142    1
   158   139   142    1
   159   139   140    1
   160   140   141    2
