@<TRIPOS>MOLECULE
tmp/2vwhA01.pdb
 110 101 0 0 0
SMALL
GASTEIGER

@<TRIPOS>ATOM
      1  N          5.5400   33.5730   26.6590 N.3    38  ASP38      -0.1239
      2  CA         4.6160   33.1910   25.5880 C.3    38  ASP38       0.1674
      3  C          4.9430   31.8070   25.0090 C.2    38  ASP38       0.2266
      4  O          5.8180   31.1090   25.5100 O.2    38  ASP38      -0.2867
      5  CB         4.4680   34.3020   24.5200 C.3    38  ASP38       0.1410
      6  CG         5.6200   34.3640   23.5070 C.2    38  ASP38       0.3668
      7  OD1        6.6300   33.6470   23.6010 O.co2  38  ASP38      -0.2456
      8  OD2        5.4880   35.1720   22.5810 O.co2  38  ASP38      -0.2456
      9  N          6.3010   31.0190   22.2100 N.3    40  THR40      -0.1218
     10  CA         7.6570   30.9620   21.6390 C.3    40  THR40       0.1862
     11  C          8.7010   30.6100   22.7180 C.2    40  THR40       0.2287
     12  O          9.6000   29.8060   22.4820 O.2    40  THR40      -0.2866
     13  CB         8.0060   32.2800   20.9140 C.3    40  THR40       0.1770
     14  OG1        7.0370   32.5340   19.8700 O.3    40  THR40      -0.2211
     15  CG2        9.4070   32.2200   20.2990 C.3    40  THR40       0.0375
     16  N         12.8270   25.9330   18.6700 N.3    49  HIS49      -0.1241
     17  CA        13.0540   27.2380   18.0240 C.3    49  HIS49       0.1621
     18  C         14.1830   27.9830   18.7350 C.2    49  HIS49       0.2264
     19  O         14.4020   27.8060   19.9340 O.2    49  HIS49      -0.2867
     20  CB        11.7520   28.0700   18.0320 C.3    49  HIS49       0.0745
     21  CG        11.8420   29.3920   17.3160 C.ar   49  HIS49       0.0817
     22  ND1       11.9620   29.5000   15.9450 N.ar   49  HIS49      -0.2268
     23  CD2       11.7870   30.6630   17.7840 C.ar   49  HIS49       0.1154
     24  CE1       12.0030   30.7760   15.6020 C.ar   49  HIS49       0.1986
     25  NE2       11.8890   31.5040   16.6990 N.ar   49  HIS49      -0.2212
     26  N         11.5860   37.7180   26.3820 N.3    63  HIS63      -0.1241
     27  CA        11.6480   38.7500   25.3430 C.3    63  HIS63       0.1621
     28  C         10.5510   39.8190   25.4470 C.2    63  HIS63       0.2264
     29  O         10.6380   40.8390   24.7660 O.2    63  HIS63      -0.2867
     30  CB        11.6630   38.1030   23.9440 C.3    63  HIS63       0.0745
     31  CG        10.4110   37.3610   23.5990 C.ar   63  HIS63       0.0817
     32  ND1       10.2180   36.0360   23.9270 N.ar   63  HIS63      -0.2268
     33  CD2        9.2920   37.7540   22.9440 C.ar   63  HIS63       0.1154
     34  CE1        9.0290   35.6460   23.4940 C.ar   63  HIS63       0.1986
     35  NE2        8.4480   36.6670   22.8900 N.ar   63  HIS63      -0.2212
     36  N         13.2880   43.5790   20.4990 N.3    87  VAL87      -0.1245
     37  CA        13.8470   42.2410   20.6540 C.3    87  VAL87       0.1561
     38  C         15.1040   41.9810   19.7980 C.2    87  VAL87       0.2260
     39  O         16.0470   41.3060   20.2570 O.2    87  VAL87      -0.2867
     40  CB        12.7510   41.1980   20.3950 C.3    87  VAL87       0.0252
     41  CG1       13.3170   39.7740   20.4570 C.3    87  VAL87       0.0019
     42  CG2       11.6090   41.4060   21.4190 C.3    87  VAL87       0.0019
     43  N         20.3540   38.6740   12.2380 N.3   112  TYR112     -0.1241
     44  CA        19.8950   39.2850   13.4870 C.3   112  TYR112      0.1605
     45  C         20.1040   38.3160   14.6460 C.2   112  TYR112      0.2264
     46  O         20.2310   37.1190   14.4380 O.2   112  TYR112     -0.2867
     47  CB        18.4130   39.6550   13.3860 C.3   112  TYR112      0.0534
     48  CG        17.4960   38.4740   13.1950 C.ar  112  TYR112     -0.0201
     49  CD1       17.0280   37.7530   14.2830 C.ar  112  TYR112     -0.0009
     50  CD2       17.1120   38.0610   11.9220 C.ar  112  TYR112     -0.0009
     51  CE1       16.2020   36.6560   14.1180 C.ar  112  TYR112      0.0417
     52  CE2       16.2770   36.9730   11.7480 C.ar  112  TYR112      0.0417
     53  CZ        15.8220   36.2750   12.8460 C.ar  112  TYR112      0.1957
     54  OH        14.9920   35.1930   12.6790 O.3   112  TYR112     -0.2866
     55  N         17.8240   37.6460   18.3080 N.3   114  GLU114     -0.1245
     56  CA        16.6560   38.0170   19.1050 C.3   114  GLU114      0.1567
     57  C         16.9460   37.7010   20.5640 C.2   114  GLU114      0.2260
     58  O         17.2020   36.5420   20.9310 O.2   114  GLU114     -0.2867
     59  CB        15.4110   37.2570   18.6360 C.3   114  GLU114      0.0388
     60  CG        14.8560   37.7620   17.3250 C.3   114  GLU114      0.1160
     61  CD        13.6900   36.9210   16.7580 C.2   114  GLU114      0.3649
     62  OE1       13.4540   35.7640   17.1750 O.co2 114  GLU114     -0.2457
     63  OE2       13.0130   37.4350   15.8540 O.co2 114  GLU114     -0.2457
     64  N         15.7960   34.5330   22.6370 N.3   117  ILE117     -0.1245
     65  CA        15.2860   33.5860   21.6620 C.3   117  ILE117      0.1561
     66  C         16.4100   33.0040   20.8100 C.2   117  ILE117      0.2260
     67  O         16.5870   31.7880   20.7820 O.2   117  ILE117     -0.2867
     68  CB        14.2060   34.2070   20.7430 C.3   117  ILE117      0.0252
     69  CG1       13.0600   34.8090   21.5670 C.3   117  ILE117      0.0019
     70  CG2       13.6320   33.1330   19.7890 C.3   117  ILE117      0.0019
     71  CD1       12.0010   35.5320   20.7190 C.3   117  ILE117      0.0001
     72  N          4.9090   44.3580   23.7980 N.3   150  GLU150     -0.1245
     73  CA         5.5710   43.5850   22.7510 C.3   150  GLU150      0.1567
     74  C          4.6080   42.7240   21.9220 C.2   150  GLU150      0.2260
     75  O          4.6060   42.8330   20.6910 O.2   150  GLU150     -0.2867
     76  CB         6.7550   42.7800   23.3080 C.3   150  GLU150      0.0388
     77  CG         7.7100   42.2280   22.2380 C.3   150  GLU150      0.1160
     78  CD         7.3120   40.8850   21.6920 C.2   150  GLU150      0.3649
     79  OE1        6.3640   40.2760   22.2260 O.co2 150  GLU150     -0.2457
     80  OE2        7.9580   40.4160   20.7240 O.co2 150  GLU150     -0.2457
     81  N          3.4450   42.9930   17.7620 N.3   154  ILE154     -0.1245
     82  CA         3.4700   41.9460   16.7590 C.3   154  ILE154      0.1561
     83  C          2.2530   42.0690   15.8280 C.2   154  ILE154      0.2260
     84  O          2.3750   42.0790   14.5980 O.2   154  ILE154     -0.2867
     85  CB         3.4750   40.5390   17.4110 C.3   154  ILE154      0.0252
     86  CG1        4.7520   40.3090   18.2480 C.3   154  ILE154      0.0019
     87  CG2        3.3010   39.4340   16.3430 C.3   154  ILE154      0.0019
     88  CD1        6.0800   40.3410   17.4700 C.3   154  ILE154      0.0001
     89  N          4.7650   30.0190   14.3870 N.3   274  VAL274     -0.1245
     90  CA         6.0640   29.3780   14.1650 C.3   274  VAL274      0.1561
     91  C          5.8070   27.8700   14.1150 C.2   274  VAL274      0.2260
     92  O          5.5270   27.2360   15.1400 O.2   274  VAL274     -0.2867
     93  CB         7.0800   29.7520   15.2450 C.3   274  VAL274      0.0252
     94  CG1        8.3970   29.0060   15.0170 C.3   274  VAL274      0.0019
     95  CG2        7.3070   31.2770   15.2460 C.3   274  VAL274      0.0019
     96  N          6.7430   38.5570   10.9660 N.3   302  VAL302     -0.1231
     97  CA         7.4940   38.1950   12.1690 C.3   302  VAL302      0.1692
     98  C          8.0990   39.4290   12.8070 C.2   302  VAL302      0.2592
     99  O          8.4800   40.3780   12.1120 O.2   302  VAL302     -0.2718
    100  CB         8.5830   37.1110   11.8860 C.3   302  VAL302      0.0266
    101  CG1        9.7360   37.6750   10.9950 C.3   302  VAL302      0.0020
    102  CG2        9.1160   36.5440   13.1990 C.3   302  VAL302      0.0020
    103  N          8.1520   39.4320   14.1440 N.am  303  ASN303     -0.1974
    104  CA         8.8320   40.4760   14.8880 C.3   303  ASN303      0.1688
    105  C          8.0840   41.8010   14.7180 C.2   303  ASN303      0.2292
    106  O          6.9120   41.8140   14.3140 O.2   303  ASN303     -0.2864
    107  CB        10.3130   40.5560   14.4580 C.3   303  ASN303      0.1181
    108  CG        11.1930   41.3250   15.4440 C.2   303  ASN303      0.2629
    109  OD1       11.7530   42.3560   15.0910 O.2   303  ASN303     -0.2716
    110  ND2       11.3040   40.8390   16.6670 N.am  303  ASN303     -0.0877
@<TRIPOS>BOND
     1    96    97    1
     2   101   100    1
     3    52    50   ar
     4    52    53   ar
     5   100    97    1
     6   100   102    1
     7    50    48   ar
     8    99    98    2
     9    97    98    1
    10    43    44    1
    11    54    53    1
    12    98   103   am
    13    53    51   ar
    14    48    47    1
    15    48    49   ar
    16    47    44    1
    17    44    45    1
    18    91    90    1
    19    91    92    2
    20    51    49   ar
    21   103   104    1
    22    90    89    1
    23    90    93    1
    24   106   105    2
    25    46    45    2
    26   107   104    1
    27   107   108    1
    28    84    83    2
    29   105   104    1
    30    94    93    1
    31   109   108    2
    32    93    95    1
    33   108   110   am
    34    24    22   ar
    35    24    25   ar
    36    83    82    1
    37    63    61   ar
    38    22    21   ar
    39    87    85    1
    40    25    23   ar
    41    61    62   ar
    42    61    60    1
    43    82    85    1
    44    82    81    1
    45    21    23   ar
    46    21    20    1
    47    60    59    1
    48    85    86    1
    49    88    86    1
    50    17    20    1
    51    17    16    1
    52    17    18    1
    53    55    56    1
    54    59    56    1
    55    18    19    2
    56    56    57    1
    57    70    68    1
    58    38    39    2
    59    38    37    1
    60    14    13    1
    61    15    13    1
    62    40    41    1
    63    40    37    1
    64    40    42    1
    65    36    37    1
    66    57    58    2
    67    75    74    2
    68    71    69    1
    69    80    78   ar
    70    68    69    1
    71    68    65    1
    72    67    66    2
    73    66    65    1
    74    13    10    1
    75    10     9    1
    76    10    11    1
    77    65    64    1
    78    78    79   ar
    79    78    77    1
    80    74    73    1
    81    77    76    1
    82    12    11    2
    83     8     6   ar
    84    73    76    1
    85    73    72    1
    86    35    33   ar
    87    35    34   ar
    88    33    31   ar
    89    34    32   ar
    90     6     7   ar
    91     6     5    1
    92    31    32   ar
    93    31    30    1
    94    30    27    1
    95     5     2    1
    96    29    28    2
    97     3     4    2
    98     3     2    1
    99    27    28    1
   100    27    26    1
   101     2     1    1
