@<TRIPOS>MOLECULE
tmp/2vwiA00.pdb
 145 132 0 0 0
SMALL
GASTEIGER

@<TRIPOS>ATOM
      1  N         85.0040  163.5060  -31.6780 N.3    11  ILE11      -0.1231
      2  CA        85.2130  162.0560  -31.7860 C.3    11  ILE11       0.1692
      3  C         84.2690  161.2020  -30.9070 C.2    11  ILE11       0.2592
      4  O         83.5880  160.3240  -31.4390 O.2    11  ILE11      -0.2718
      5  CB        86.7140  161.6660  -31.5950 C.3    11  ILE11       0.0266
      6  CG1       87.5880  162.4130  -32.6110 C.3    11  ILE11       0.0019
      7  CG2       86.9090  160.1540  -31.7230 C.3    11  ILE11       0.0020
      8  CD1       89.0520  162.5190  -32.2260 C.3    11  ILE11       0.0001
      9  N         84.2070  161.4300  -29.5900 N.am   12  GLY12      -0.1957
     10  CA        84.9760  162.4460  -28.8740 C.3    12  GLY12       0.1869
     11  C         84.2420  162.9730  -27.6570 C.2    12  GLY12       0.2309
     12  O         84.7850  162.9910  -26.5520 O.2    12  GLY12      -0.2863
     13  N         89.2620  165.5840  -17.4150 N.3    13  THR13      -0.1203
     14  CA        88.7660  164.4820  -18.2320 C.3    13  THR13       0.1994
     15  C         87.5540  164.9170  -19.0570 C.2    13  THR13       0.2617
     16  O         86.4130  164.5640  -18.7450 O.2    13  THR13      -0.2717
     17  CB        88.4290  163.2780  -17.3540 C.3    13  THR13       0.1784
     18  OG1       87.4290  163.6680  -16.4260 O.3    13  THR13      -0.2211
     19  CG2       89.6500  162.7420  -16.6310 C.3    13  THR13       0.0376
     20  N         87.8160  165.6870  -20.1130 N.am   14  ALA14      -0.1979
     21  CA        86.7510  166.2430  -20.9540 C.3    14  ALA14       0.1597
     22  C         86.6890  165.6270  -22.3620 C.2    14  ALA14       0.2287
     23  O         86.5810  164.4080  -22.5030 O.2    14  ALA14      -0.2864
     24  CB        86.8040  167.7950  -21.0090 C.3    14  ALA14       0.0319
     25  N         87.4970  165.0790  -26.7330 N.3    16  VAL16      -0.1245
     26  CA        88.5320  164.8480  -27.7450 C.3    16  VAL16       0.1561
     27  C         87.9870  165.2390  -29.1240 C.2    16  VAL16       0.2260
     28  O         86.8780  164.8490  -29.4920 O.2    16  VAL16      -0.2867
     29  CB        89.0060  163.3650  -27.7650 C.3    16  VAL16       0.0252
     30  CG1       90.2000  163.1860  -28.6960 C.3    16  VAL16       0.0019
     31  CG2       89.3640  162.8840  -26.3630 C.3    16  VAL16       0.0019
     32  N         94.2940  164.1860  -33.8280 N.3    25  ALA25      -0.1245
     33  CA        93.3470  164.2400  -32.7160 C.3    25  ALA25       0.1562
     34  C         93.9080  165.0620  -31.5570 C.2    25  ALA25       0.2260
     35  O         95.0530  164.8670  -31.1440 O.2    25  ALA25      -0.2867
     36  CB        92.9870  162.8360  -32.2510 C.3    25  ALA25       0.0290
     37  N         93.0740  166.4590  -27.5190 N.3    27  LYS27      -0.1245
     38  CA        92.2710  166.2200  -26.3230 C.3    27  LYS27       0.1561
     39  C         92.2330  167.4360  -25.4030 C.2    27  LYS27       0.2260
     40  O         93.2770  167.9360  -24.9750 O.2    27  LYS27      -0.2867
     41  CB        92.7850  164.9980  -25.5710 C.3    27  LYS27       0.0271
     42  CG        91.8240  164.6270  -24.4740 C.3    27  LYS27       0.0035
     43  CD        92.4120  163.3890  -23.8560 C.3    27  LYS27       0.0206
     44  CE        91.4740  163.1380  -22.7250 C.3    27  LYS27       0.1093
     45  NZ        91.2350  161.7240  -22.6500 N.3    27  LYS27      -0.1314
     46  N         99.7090  155.4540  -27.8360 N.3    41  VAL41      -0.1245
     47  CA        99.2690  156.7830  -28.2370 C.3    41  VAL41       0.1561
     48  C         99.9810  157.8080  -27.3560 C.2    41  VAL41       0.2260
     49  O         99.6700  157.9520  -26.1690 O.2    41  VAL41      -0.2867
     50  CB        97.7320  156.9490  -28.1410 C.3    41  VAL41       0.0252
     51  CG1       97.3160  158.3280  -28.6280 C.3    41  VAL41       0.0019
     52  CG2       97.0190  155.8730  -28.9500 C.3    41  VAL41       0.0019
     53  N         97.7520  164.4980  -30.5440 N.3    57  MET57      -0.1230
     54  CA        98.1440  163.1050  -30.7590 C.3    57  MET57       0.1702
     55  C         97.6460  162.5990  -32.1130 C.2    57  MET57       0.2592
     56  O         96.8100  163.2430  -32.7530 O.2    57  MET57      -0.2718
     57  CB        97.6490  162.2120  -29.6100 C.3    57  MET57       0.0401
     58  CG        96.1330  162.1010  -29.4760 C.3    57  MET57       0.0596
     59  SD        95.6180  161.4240  -27.8840 S.3    57  MET57      -0.1393
     60  CE        95.6660  162.8850  -26.8530 C.3    57  MET57       0.0692
     61  N         98.1670  161.4540  -32.5480 N.am   58  LYS58      -0.1966
     62  CA        97.7730  160.8630  -33.8260 C.3    58  LYS58       0.1728
     63  C         96.2960  160.4780  -33.8180 C.2    58  LYS58       0.2616
     64  O         95.8100  159.8720  -32.8600 O.2    58  LYS58      -0.2715
     65  CB        98.6460  159.6450  -34.1610 C.3    58  LYS58       0.0311
     66  CG        98.3830  159.0120  -35.5400 C.3    58  LYS58       0.0038
     67  CD        99.2120  159.6470  -36.6660 C.3    58  LYS58       0.0206
     68  CE        98.5690  160.9060  -37.2590 C.3    58  LYS58       0.1093
     69  NZ        97.2860  160.6310  -37.9720 N.3    58  LYS58      -0.1314
     70  N         95.5900  160.8550  -34.8800 N.am   59  LEU59      -0.1963
     71  CA        94.1920  160.4790  -35.0480 C.3    59  LEU59       0.1728
     72  C         94.0960  159.0460  -35.5510 C.2    59  LEU59       0.2616
     73  O         94.7290  158.6780  -36.5450 O.2    59  LEU59      -0.2715
     74  CB        93.4760  161.4320  -36.0130 C.3    59  LEU59       0.0311
     75  CG        92.0250  161.1180  -36.4060 C.3    59  LEU59       0.0022
     76  CD1       91.0680  161.2980  -35.2330 C.3    59  LEU59       0.0001
     77  CD2       91.5910  161.9800  -37.5820 C.3    59  LEU59       0.0001
     78  N         93.3030  158.2420  -34.8520 N.am   60  LEU60      -0.1977
     79  CA        93.0600  156.8660  -35.2560 C.3    60  LEU60       0.1596
     80  C         91.6180  156.6850  -35.7170 C.2    60  LEU60       0.2287
     81  O         90.6890  156.6450  -34.9070 O.2    60  LEU60      -0.2864
     82  CB        93.4110  155.9030  -34.1250 C.3    60  LEU60       0.0297
     83  CG        94.9060  155.6900  -33.8900 C.3    60  LEU60       0.0022
     84  CD1       95.4630  156.6430  -32.8440 C.3    60  LEU60       0.0001
     85  CD2       95.1020  154.2790  -33.4470 C.3    60  LEU60       0.0001
     86  N         88.8790  153.3180  -35.1040 N.3    63  GLY63      -0.1210
     87  CA        88.1180  153.1010  -33.8720 C.3    63  GLY63       0.1956
     88  C         88.8730  152.2900  -32.8340 C.2    63  GLY63       0.2612
     89  O         90.1050  152.2610  -32.8340 O.2    63  GLY63      -0.2717
     90  N         88.1280  151.6330  -31.9480 N.am   64  SER64      -0.1952
     91  CA        88.7080  150.7690  -30.9250 C.3    64  SER64       0.1924
     92  C         88.3440  149.3030  -31.1580 C.2    64  SER64       0.2314
     93  O         87.4630  148.9940  -31.9630 O.2    64  SER64      -0.2863
     94  CB        88.2580  151.2100  -29.5280 C.3    64  SER64       0.2116
     95  OG        86.8690  150.9950  -29.3400 O.3    64  SER64      -0.2180
     96  N         94.9020  151.7190  -17.4040 N.3   111  ASP111     -0.1239
     97  CA        93.5720  151.5630  -18.0010 C.3   111  ASP111      0.1674
     98  C         93.5390  150.6820  -19.2580 C.2   111  ASP111      0.2266
     99  O         92.9270  151.0530  -20.2630 O.2   111  ASP111     -0.2867
    100  CB        92.9510  152.9440  -18.2790 C.3   111  ASP111      0.1410
    101  CG        91.4250  152.9150  -18.3140 C.2   111  ASP111      0.3668
    102  OD1       90.8200  151.8660  -18.0050 O.co2 111  ASP111     -0.2456
    103  OD2       90.8250  153.9530  -18.6570 O.co2 111  ASP111     -0.2456
    104  N         92.1260  148.0310  -21.5900 N.3   113  LYS113     -0.1245
    105  CA        90.8380  147.4050  -21.9000 C.3   113  LYS113      0.1561
    106  C         90.5750  147.5830  -23.3940 C.2   113  LYS113      0.2260
    107  O         91.2270  148.4070  -24.0320 O.2   113  LYS113     -0.2867
    108  CB        89.7010  148.0110  -21.0640 C.3   113  LYS113      0.0271
    109  CG        89.4510  149.5150  -21.2490 C.3   113  LYS113      0.0035
    110  CD        88.2710  149.9590  -20.3850 C.3   113  LYS113      0.0206
    111  CE        87.6310  151.2500  -20.8800 C.3   113  LYS113      0.1093
    112  NZ        88.3460  152.4620  -20.4050 N.3   113  LYS113     -0.1314
    113  N         88.3000  149.0420  -25.0390 N.3   115  GLY115     -0.1210
    114  CA        87.9570  150.4260  -25.3600 C.3   115  GLY115      0.1956
    115  C         89.1690  151.3260  -25.5230 C.2   115  GLY115      0.2611
    116  O         89.1020  152.3470  -26.2110 O.2   115  GLY115     -0.2717
    117  N         90.2780  150.9440  -24.8890 N.am  116  ASN116     -0.1974
    118  CA        91.5230  151.7030  -24.9780 C.3   116  ASN116      0.1688
    119  C         92.5640  151.0820  -25.9110 C.2   116  ASN116      0.2292
    120  O         93.7170  151.5070  -25.9290 O.2   116  ASN116     -0.2864
    121  CB        92.1130  151.9510  -23.5850 C.3   116  ASN116      0.1181
    122  CG        91.3880  153.0490  -22.8310 C.2   116  ASN116      0.2629
    123  OD1       90.7200  153.8970  -23.4280 O.2   116  ASN116     -0.2716
    124  ND2       91.5220  153.0440  -21.5100 N.am  116  ASN116     -0.0877
    125  N         93.2290  151.2130  -29.5150 N.3   118  LEU118     -0.1245
    126  CA        92.8340  151.9900  -30.6840 C.3   118  LEU118      0.1561
    127  C         93.4860  151.4690  -31.9590 C.2   118  LEU118      0.2260
    128  O         94.6570  151.0810  -31.9630 O.2   118  LEU118     -0.2867
    129  CB        93.1490  153.4750  -30.4810 C.3   118  LEU118      0.0270
    130  CG        92.5830  154.1770  -29.2410 C.3   118  LEU118      0.0019
    131  CD1       92.9900  155.6400  -29.2440 C.3   118  LEU118      0.0001
    132  CD2       91.0620  154.0430  -29.1450 C.3   118  LEU118      0.0001
    133  N         95.5310  153.4870  -25.8110 N.3   128  ALA128     -0.1231
    134  CA        95.1770  154.9070  -25.6950 C.3   128  ALA128      0.1694
    135  C         96.0710  155.6740  -24.7220 C.2   128  ALA128      0.2592
    136  O         96.7010  155.0790  -23.8440 O.2   128  ALA128     -0.2718
    137  CB        93.7100  155.0540  -25.2980 C.3   128  ALA128      0.0304
    138  N         96.1110  156.9960  -24.8890 N.am  129  ASP129     -0.1974
    139  CA        96.9470  157.8790  -24.0690 C.3   129  ASP129      0.1709
    140  C         96.6770  157.7180  -22.5720 C.2   129  ASP129      0.2293
    141  O         95.5390  157.5020  -22.1550 O.2   129  ASP129     -0.2864
    142  CB        96.7800  159.3470  -24.4930 C.3   129  ASP129      0.1436
    143  CG        95.3700  159.8740  -24.2610 C.2   129  ASP129      0.3671
    144  OD1       95.1950  160.7170  -23.3550 O.co2 129  ASP129     -0.2456
    145  OD2       94.4400  159.4430  -24.9770 O.co2 129  ASP129     -0.2456
@<TRIPOS>BOND
     1    69    68    1
     2    77    75    1
     3    68    67    1
     4    67    66    1
     5    73    72    2
     6    75    74    1
     7    75    76    1
     8    74    71    1
     9    80    79    1
    10    80    81    2
    11    72    71    1
    12    72    78   am
    13    66    65    1
    14    79    78    1
    15    79    82    1
    16    86    87    1
    17    71    70    1
    18    70    63   am
    19    65    62    1
    20    82    83    1
    21    83    85    1
    22    83    84    1
    23    87    88    1
    24    32    33    1
    25    62    63    1
    26    62    61    1
    27    63    64    2
    28    89    88    2
    29    88    90   am
    30    56    55    2
    31    33    36    1
    32    33    34    1
    33     6     8    1
    34     6     5    1
    35    61    55   am
    36    55    54    1
    37    93    92    2
    38   128   127    2
    39   127   126    1
    40    90    91    1
    41     2     1    1
    42     2     5    1
    43     2     3    1
    44     7     5    1
    45    34    35    2
    46     4     3    2
    47    92    91    1
    48    91    94    1
    49     3     9   am
    50    54    53    1
    51    54    57    1
    52   126   129    1
    53   126   125    1
    54   129   130    1
    55    57    58    1
    56     9    10    1
    57    94    95    1
    58    28    27    2
    59    58    59    1
    60   131   130    1
    61   130   132    1
    62    27    26    1
    63    52    50    1
    64    10    11    1
    65    30    29    1
    66    51    50    1
    67    47    50    1
    68    47    46    1
    69    47    48    1
    70    59    60    1
    71    29    26    1
    72    29    31    1
    73    26    25    1
    74    11    12    2
    75    37    38    1
    76    48    49    2
    77    38    41    1
    78    38    39    1
    79   116   115    2
    80   120   119    2
    81   119   118    1
    82   133   134    1
    83   134   137    1
    84   134   135    1
    85    41    42    1
    86   115   114    1
    87   115   117   am
    88    39    40    2
    89   114   113    1
    90   118   117    1
    91   118   121    1
    92   145   143   ar
    93   138   135   am
    94   138   139    1
    95   135   136    2
    96   142   143    1
    97   142   139    1
    98    42    43    1
    99   143   144   ar
   100   139   140    1
   101   107   106    2
   102    43    44    1
   103   121   122    1
   104   123   122    2
   105   106   105    1
   106   122   124   am
   107    44    45    1
   108   140   141    2
   109    23    22    2
   110    22    21    1
   111   105   104    1
   112   105   108    1
   113   109   108    1
   114   109   110    1
   115    24    21    1
   116    21    20    1
   117   111   112    1
   118   111   110    1
   119    99    98    2
   120    20    15   am
   121    98    97    1
   122    15    16    2
   123    15    14    1
   124   103   101   ar
   125   101   100    1
   126   101   102   ar
   127   100    97    1
   128    14    13    1
   129    14    17    1
   130    97    96    1
   131    17    19    1
   132    17    18    1
