@<TRIPOS>MOLECULE
tmp/2vwlA00.pdb
 206 205 0 0 0
SMALL
GASTEIGER

@<TRIPOS>ATOM
      1  N         14.3900   57.9500   -4.4810 N.3    42  HIS42      -0.1241
      2  CA        13.3500   58.9810   -4.7020 C.3    42  HIS42       0.1621
      3  C         13.8970   60.2140   -5.4400 C.2    42  HIS42       0.2264
      4  O         13.1440   60.9430   -6.0930 O.2    42  HIS42      -0.2867
      5  CB        12.6220   59.3860   -3.4150 C.3    42  HIS42       0.0745
      6  CG        13.4370   60.2630   -2.5090 C.ar   42  HIS42       0.0817
      7  ND1       14.2040   59.7570   -1.4770 N.ar   42  HIS42      -0.2268
      8  CD2       13.6170   61.6030   -2.4910 C.ar   42  HIS42       0.1154
      9  CE1       14.8130   60.7550   -0.8580 C.ar   42  HIS42       0.1986
     10  NE2       14.4720   61.8870   -1.4530 N.ar   42  HIS42      -0.2212
     11  N          7.2260   54.9010   -3.9680 N.3    82  LYS82      -0.1231
     12  CA         6.8130   56.0320   -3.1690 C.3    82  LYS82       0.1693
     13  C          5.6740   55.7180   -2.2280 C.2    82  LYS82       0.2592
     14  O          5.4230   56.5080   -1.3300 O.2    82  LYS82      -0.2718
     15  CB         6.4000   57.1970   -4.0710 C.3    82  LYS82       0.0285
     16  CG         7.5490   58.0230   -4.6050 C.3    82  LYS82       0.0035
     17  CD         6.9750   59.2240   -5.3310 C.3    82  LYS82       0.0206
     18  CE         8.0610   60.1120   -5.9630 C.3    82  LYS82       0.1093
     19  NZ         7.4410   60.9520   -7.0780 N.3    82  LYS82      -0.1314
     20  N          4.9780   54.5950   -2.4380 N.am   83  GLU83      -0.1966
     21  CA         3.9280   54.1550   -1.4950 C.3    83  GLU83       0.1733
     22  C          4.5060   53.9950   -0.0850 C.2    83  GLU83       0.2617
     23  O          3.8890   54.3990    0.9150 O.2    83  GLU83      -0.2715
     24  CB         3.3350   52.8250   -1.9510 C.3    83  GLU83       0.0429
     25  CG         2.4560   52.1460   -0.9140 C.3    83  GLU83       0.1163
     26  CD         1.9320   50.7850   -1.3990 C.2    83  GLU83       0.3649
     27  OE1        1.1350   50.7720   -2.3600 O.co2  83  GLU83      -0.2457
     28  OE2        2.3220   49.7430   -0.8250 O.co2  83  GLU83      -0.2457
     29  N          5.7190   53.4370   -0.0200 N.am   84  THR84      -0.1937
     30  CA         6.3400   53.1030    1.2600 C.3    84  THR84       0.2028
     31  C          7.6630   53.8140    1.5220 C.2    84  THR84       0.2642
     32  O          8.1300   53.8600    2.6750 O.2    84  THR84      -0.2714
     33  CB         6.6470   51.6080    1.3580 C.3    84  THR84       0.1808
     34  OG1        7.5570   51.2280    0.3230 O.3    84  THR84      -0.2208
     35  CG2        5.3410   50.7680    1.2210 C.3    84  THR84       0.0379
     36  N          8.2680   54.3610    0.4800 N.am   85  TYR85      -0.1973
     37  CA         9.6760   54.8580    0.5760 C.3    85  TYR85       0.1639
     38  C         10.6810   53.7800    1.0230 C.2    85  TYR85       0.2290
     39  O         11.7990   54.0810    1.4040 O.2    85  TYR85      -0.2864
     40  CB         9.7680   56.1300    1.4320 C.3    85  TYR85       0.0560
     41  CG         9.6090   57.3960    0.6020 C.ar   85  TYR85      -0.0198
     42  CD1        8.3630   57.7230    0.0350 C.ar   85  TYR85      -0.0009
     43  CD2       10.6740   58.2500    0.3870 C.ar   85  TYR85      -0.0009
     44  CE1        8.2020   58.8590   -0.7270 C.ar   85  TYR85       0.0417
     45  CE2       10.5110   59.4260   -0.3760 C.ar   85  TYR85       0.0417
     46  CZ         9.2590   59.7070   -0.9280 C.ar   85  TYR85       0.1957
     47  OH         9.0590   60.8360   -1.6910 O.3    85  TYR85      -0.2866
     48  N         17.4720   72.9650    2.6320 N.3   132  ARG132     -0.1245
     49  CA        16.9260   74.0960    3.4050 C.3   132  ARG132      0.1563
     50  C         17.4630   74.1900    4.8320 C.2   132  ARG132      0.2260
     51  O         17.7640   73.1710    5.4850 O.2   132  ARG132     -0.2867
     52  CB        15.3970   74.0450    3.4570 C.3   132  ARG132      0.0307
     53  CG        14.7480   74.0940    2.1050 C.3   132  ARG132      0.0489
     54  CD        13.2520   74.1100    2.2100 C.3   132  ARG132      0.2205
     55  NE        12.6950   74.2270    0.8790 N.pl3 132  ARG132     -0.0865
     56  CZ        11.4850   73.8180    0.5080 C.cat 132  ARG132      0.5346
     57  NH1       10.6730   73.2140    1.3760 N.pl3 132  ARG132      0.1354
     58  NH2       11.1000   73.9970   -0.7530 N.pl3 132  ARG132      0.1354
     59  N         12.5230   74.3820    7.6740 N.3   135  GLU135     -0.1245
     60  CA        11.4960   73.6880    6.9210 C.3   135  GLU135      0.1567
     61  C         10.8910   74.4310    5.7120 C.2   135  GLU135      0.2260
     62  O         10.7690   73.8650    4.6250 O.2   135  GLU135     -0.2867
     63  CB        10.3670   73.1920    7.8330 C.3   135  GLU135      0.0388
     64  CG         9.4450   72.2500    7.0860 C.3   135  GLU135      0.1160
     65  CD         8.3750   71.5960    7.9570 C.2   135  GLU135      0.3649
     66  OE1        8.6470   71.2490    9.1320 O.co2 135  GLU135     -0.2457
     67  OE2        7.2620   71.3980    7.4250 O.co2 135  GLU135     -0.2457
     68  N          4.2500   56.9540    9.4930 N.3   162  PHE162     -0.1227
     69  CA         4.4450   55.9000    8.4500 C.3   162  PHE162      0.1736
     70  C          5.3050   54.7560    8.9530 C.2   162  PHE162      0.2595
     71  O          6.0770   54.9270    9.8790 O.2   162  PHE162     -0.2718
     72  CB         5.1370   56.5090    7.2360 C.3   162  PHE162      0.0547
     73  CG         4.4070   57.7240    6.6730 C.ar  162  PHE162     -0.0202
     74  CD1        3.3350   57.5530    5.8400 C.ar  162  PHE162     -0.0042
     75  CD2        4.7520   59.0100    7.0730 C.ar  162  PHE162     -0.0042
     76  CE1        2.6230   58.6640    5.3510 C.ar  162  PHE162     -0.0003
     77  CE2        4.0810   60.1120    6.5760 C.ar  162  PHE162     -0.0003
     78  CZ         3.0050   59.9220    5.6970 C.ar  162  PHE162     -0.0000
     79  N          5.2120   53.6190    8.2780 N.am  163  ILE163     -0.1980
     80  CA         5.9320   52.3910    8.6580 C.3   163  ILE163      0.1595
     81  C          7.4320   52.5670    8.4920 C.2   163  ILE163      0.2287
     82  O          7.8900   53.0210    7.4410 O.2   163  ILE163     -0.2864
     83  CB         5.4400   51.2530    7.7770 C.3   163  ILE163      0.0276
     84  CG1        4.0240   50.8600    8.2210 C.3   163  ILE163      0.0022
     85  CG2        6.3220   50.0340    7.8790 C.3   163  ILE163      0.0022
     86  CD1        3.2600   50.2990    7.1040 C.3   163  ILE163      0.0001
     87  N         18.2360   68.9020   12.1400 N.3   179  ASP179     -0.1225
     88  CA        17.7600   67.8000   11.3260 C.3   179  ASP179      0.1805
     89  C         18.2080   68.0540    9.8930 C.2   179  ASP179      0.2598
     90  O         18.6260   69.1700    9.5390 O.2   179  ASP179     -0.2718
     91  CB        16.2270   67.8240   11.3650 C.3   179  ASP179      0.1424
     92  CG        15.5880   66.5410   10.8610 C.2   179  ASP179      0.3668
     93  OD1       16.3220   65.5920   10.5420 O.co2 179  ASP179     -0.2456
     94  OD2       14.3310   66.5160   10.7470 O.co2 179  ASP179     -0.2456
     95  N         18.0690   67.0510    9.0490 N.am  180  ALA180     -0.1966
     96  CA        18.2510   67.2580    7.6190 C.3   180  ALA180      0.1728
     97  C         16.9610   67.8820    7.1440 C.2   180  ALA180      0.2616
     98  O         15.9680   67.9090    7.8800 O.2   180  ALA180     -0.2715
     99  CB        18.4730   65.9180    6.9290 C.3   180  ALA180      0.0334
    100  N         16.9500   68.3700    5.9150 N.am  181  CYS181     -0.1954
    101  CA        15.7380   68.9850    5.3840 C.3   181  CYS181      0.1843
    102  C         15.6370   68.8250    3.8770 C.2   181  CYS181      0.2625
    103  O         16.4720   68.1590    3.2410 O.2   181  CYS181     -0.2714
    104  CB        15.6880   70.4770    5.7860 C.3   181  CYS181      0.0997
    105  SG        14.0050   71.2180    5.7080 S.3   181  CYS181     -0.0797
    106  N         14.6220   69.4650    3.2860 N.am  182  GLN182     -0.1977
    107  CA        14.3820   69.3610    1.8470 C.3   182  GLN182      0.1601
    108  C         15.6330   69.7820    1.1030 C.2   182  GLN182      0.2287
    109  O         16.1760   70.8510    1.3620 O.2   182  GLN182     -0.2864
    110  CB        13.2490   70.2990    1.4590 C.3   182  GLN182      0.0394
    111  CG        12.8540   70.2860   -0.0110 C.3   182  GLN182      0.0908
    112  CD        12.6050   68.8950   -0.5500 C.2   182  GLN182      0.2608
    113  OE1       11.5970   68.2560   -0.2400 O.2   182  GLN182     -0.2717
    114  NE2       13.5200   68.4220   -1.3760 N.am  182  GLN182     -0.0878
    115  N         18.1340   65.2030    0.9080 N.3   185  SER185     -0.1217
    116  CA        17.9280   63.7820    0.6770 C.3   185  SER185      0.1889
    117  C         18.7960   63.3070   -0.4710 C.2   185  SER185      0.2288
    118  O         19.1260   64.0730   -1.3820 O.2   185  SER185     -0.2866
    119  CB        16.4670   63.4550    0.4090 C.3   185  SER185      0.2089
    120  OG        15.9460   64.3160   -0.5780 O.3   185  SER185     -0.2183
    121  N         20.3160   60.0050    3.3150 N.3   203  VAL203     -0.1231
    122  CA        19.2390   60.8690    3.7620 C.3   203  VAL203      0.1692
    123  C         17.9920   60.5250    2.9830 C.2   203  VAL203      0.2593
    124  O         17.9790   60.6380    1.7650 O.2   203  VAL203     -0.2718
    125  CB        19.5880   62.3580    3.5340 C.3   203  VAL203      0.0266
    126  CG1       18.4300   63.2380    3.9980 C.3   203  VAL203      0.0020
    127  CG2       20.8520   62.6870    4.3120 C.3   203  VAL203      0.0020
    128  N         16.9090   60.1430    3.6780 N.am  204  SER204     -0.1938
    129  CA        15.7580   59.6130    2.9080 C.3   204  SER204      0.2055
    130  C         14.4850   60.4490    3.0320 C.2   204  SER204      0.2643
    131  O         13.9710   60.9770    2.0240 O.2   204  SER204     -0.2714
    132  CB        15.4970   58.1420    3.2770 C.3   204  SER204      0.2130
    133  OG        14.4870   57.5650    2.4660 O.3   204  SER204     -0.2179
    134  N         13.9700   60.6070    4.2430 N.am  205  TRP205     -0.1959
    135  CA        12.7230   61.3690    4.4050 C.3   205  TRP205      0.1771
    136  C         12.4770   61.7960    5.8350 C.2   205  TRP205      0.2620
    137  O         13.1270   61.3300    6.7640 O.2   205  TRP205     -0.2715
    138  CB        11.5250   60.5590    3.8760 C.3   205  TRP205      0.0590
    139  CG        11.2560   59.2290    4.5970 C.ar  205  TRP205      0.0006
    140  CD1       11.7660   58.0010    4.2550 C.ar  205  TRP205      0.0946
    141  CD2       10.3490   59.0080    5.6750 C.ar  205  TRP205      0.0152
    142  NE1       11.2500   57.0320    5.0630 N.ar  205  TRP205     -0.2442
    143  CE2       10.3710   57.6140    5.9510 C.ar  205  TRP205      0.0810
    144  CE3        9.5040   59.8340    6.4300 C.ar  205  TRP205      0.0012
    145  CZ2        9.6170   57.0340    6.9770 C.ar  205  TRP205      0.0191
    146  CZ3        8.7300   59.2440    7.4700 C.ar  205  TRP205      0.0001
    147  CH2        8.7910   57.8540    7.7140 C.ar  205  TRP205      0.0015
    148  N         11.5420   62.7250    5.9920 N.am  206  GLY206     -0.1940
    149  CA        11.1010   63.1770    7.2990 C.3   206  GLY206      0.2014
    150  C          9.7560   63.8630    7.1410 C.2   206  GLY206      0.2639
    151  O          9.4220   64.3650    6.0520 O.2   206  GLY206     -0.2714
    152  N          8.9790   63.8620    8.2210 N.am  207  GLU207     -0.1963
    153  CA         7.7070   64.5550    8.2840 C.3   207  GLU207      0.1733
    154  C          8.0100   65.9990    8.6170 C.2   207  GLU207      0.2617
    155  O          8.0510   66.3800    9.7920 O.2   207  GLU207     -0.2715
    156  CB         6.8120   63.8950    9.3320 C.3   207  GLU207      0.0429
    157  CG         6.5160   62.4750    8.9150 C.3   207  GLU207      0.1163
    158  CD         5.4780   61.8170    9.8050 C.2   207  GLU207      0.3649
    159  OE1        4.3630   62.3770    9.9420 O.co2 207  GLU207     -0.2457
    160  OE2        5.7890   60.7450   10.3460 O.co2 207  GLU207     -0.2457
    161  N          8.2450   66.8050    7.5910 N.am  208  GLY208     -0.1940
    162  CA         8.7610   68.1750    7.8340 C.3   208  GLY208      0.2014
    163  C         10.2710   68.1550    8.0450 C.2   208  GLY208      0.2639
    164  O         10.9710   67.2360    7.5760 O.2   208  GLY208     -0.2714
    165  N         10.7910   69.1630    8.7400 N.am  209  CYS209     -0.1967
    166  CA        12.1840   69.1620    9.1740 C.3   209  CYS209      0.1712
    167  C         12.2500   69.6440   10.5960 C.2   209  CYS209      0.2296
    168  O         11.6880   70.6910   10.9210 O.2   209  CYS209     -0.2864
    169  CB        13.0530   70.0910    8.3040 C.3   209  CYS209      0.0983
    170  SG        12.7400   69.8640    6.5730 S.3   209  CYS209     -0.0798
    171  N         11.6650   62.4350   13.8110 N.3   215  TYR215     -0.1227
    172  CA        13.0920   62.2170   13.5400 C.3   215  TYR215      0.1736
    173  C         13.4250   62.2110   12.0370 C.2   215  TYR215      0.2596
    174  O         12.5300   62.2270   11.1690 O.2   215  TYR215     -0.2718
    175  CB        13.5460   60.8750   14.1680 C.3   215  TYR215      0.0548
    176  CG        13.2680   60.8180   15.6670 C.ar  215  TYR215     -0.0200
    177  CD1       14.0990   61.4730   16.5820 C.ar  215  TYR215     -0.0009
    178  CD2       12.1610   60.1120   16.1660 C.ar  215  TYR215     -0.0009
    179  CE1       13.8350   61.4310   17.9680 C.ar  215  TYR215      0.0417
    180  CE2       11.8990   60.0590   17.5260 C.ar  215  TYR215      0.0417
    181  CZ        12.7290   60.7310   18.4210 C.ar  215  TYR215      0.1957
    182  OH        12.4270   60.6620   19.7720 O.3   215  TYR215     -0.2866
    183  N         14.7100   62.1420   11.7380 N.am  216  GLY216     -0.1942
    184  CA        15.1230   62.0020   10.3370 C.3   216  GLY216      0.2014
    185  C         15.1790   60.5120    9.9980 C.2   216  GLY216      0.2639
    186  O         15.6660   59.7190   10.7920 O.2   216  GLY216     -0.2714
    187  N         14.7260   60.1400    8.8120 N.am  217  ILE217     -0.1963
    188  CA        14.7010   58.7510    8.4110 C.3   217  ILE217      0.1727
    189  C         15.6990   58.5620    7.2750 C.2   217  ILE217      0.2616
    190  O         15.7230   59.3410    6.2670 O.2   217  ILE217     -0.2715
    191  CB        13.2860   58.2690    7.9430 C.3   217  ILE217      0.0290
    192  CG1       12.1620   58.8490    8.8330 C.3   217  ILE217      0.0022
    193  CG2       13.2230   56.7290    7.9150 C.3   217  ILE217      0.0023
    194  CD1       12.2190   58.4230   10.2990 C.3   217  ILE217      0.0001
    195  N         16.5130   57.5180    7.4360 N.am  218  TYR218     -0.1974
    196  CA        17.6430   57.2530    6.5550 C.3   218  TYR218      0.1639
    197  C         17.5550   55.8600    6.0060 C.2   218  TYR218      0.2290
    198  O         17.1130   54.9390    6.6880 O.2   218  TYR218     -0.2864
    199  CB        18.9420   57.4060    7.3480 C.3   218  TYR218      0.0560
    200  CG        19.1490   58.8100    7.8610 C.ar  218  TYR218     -0.0198
    201  CD1       20.0260   59.6740    7.2150 C.ar  218  TYR218     -0.0009
    202  CD2       18.4600   59.2800    8.9790 C.ar  218  TYR218     -0.0009
    203  CE1       20.2090   60.9870    7.6650 C.ar  218  TYR218      0.0417
    204  CE2       18.6440   60.5910    9.4470 C.ar  218  TYR218      0.0417
    205  CZ        19.5150   61.4450    8.7530 C.ar  218  TYR218      0.1957
    206  OH        19.7200   62.7440    9.1970 O.3   218  TYR218     -0.2866
@<TRIPOS>BOND
     1    19    18    1
     2     4     3    2
     3    18    17    1
     4     3     2    1
     5    17    16    1
     6     2     1    1
     7     2     5    1
     8    16    15    1
     9    15    12    1
    10    11    12    1
    11     5     6    1
    12    12    13    1
    13     6     8   ar
    14     6     7   ar
    15     8    10   ar
    16    20    13   am
    17    20    21    1
    18    27    26   ar
    19    13    14    2
    20    24    21    1
    21    24    25    1
    22    47    46    1
    23    21    22    1
    24     7     9   ar
    25    10     9   ar
    26    26    25    1
    27    26    28   ar
    28   118   117    2
    29   114   112   am
    30    46    44   ar
    31    46    45   ar
    32    58    56    1
    33    44    42   ar
    34   120   119    1
    35   112   113    2
    36   112   111    1
    37   117   116    1
    38    45    43   ar
    39    22    29   am
    40    22    23    2
    41    29    30    1
    42   111   110    1
    43    42    41   ar
    44    34    33    1
    45    43    41   ar
    46   119   116    1
    47    36    37    1
    48    36    31   am
    49    56    55    2
    50    56    57    1
    51    37    38    1
    52    37    40    1
    53    41    40    1
    54   116   115    1
    55    55    54    1
    56    38    39    2
    57   108   109    2
    58   108   107    1
    59    35    33    1
    60    30    33    1
    61    30    31    1
    62   110   107    1
    63    31    32    2
    64   124   123    2
    65   107   106    1
    66   131   130    2
    67    53    54    1
    68    53    52    1
    69   133   132    1
    70    48    49    1
    71   129   130    1
    72   129   132    1
    73   129   128    1
    74   123   128   am
    75   123   122    1
    76   130   134   am
    77   103   102    2
    78   106   102   am
    79   121   122    1
    80    49    52    1
    81    49    50    1
    82   125   122    1
    83   125   126    1
    84   125   127    1
    85   138   135    1
    86   138   139    1
    87   102   101    1
    88   134   135    1
    89   140   139   ar
    90   140   142   ar
    91   135   136    1
    92   139   141   ar
    93    62    61    2
    94    50    51    2
    95   142   143   ar
    96    76    78   ar
    97    76    74   ar
    98   101   104    1
    99   101   100    1
   100   141   143   ar
   101   141   144   ar
   102    78    77   ar
   103   105   104    1
   104   105   170    1
   105    61    60    1
   106   136   148   am
   107   136   137    2
   108    74    73   ar
   109   100    97   am
   110   143   145   ar
   111   148   149    1
   112   197   196    1
   113   197   198    2
   114   151   150    2
   115   190   189    2
   116   144   146   ar
   117   196   199    1
   118   196   195    1
   119   170   169    1
   120    77    75   ar
   121    73    75   ar
   122    73    72    1
   123    60    59    1
   124    60    63    1
   125    99    96    1
   126   145   147   ar
   127    64    63    1
   128    64    65    1
   129    86    84    1
   130   150   149    1
   131   150   152   am
   132    97    96    1
   133    97    98    2
   134   201   203   ar
   135   201   200   ar
   136    72    69    1
   137   189   195   am
   138   189   188    1
   139   199   200    1
   140    67    65   ar
   141    82    81    2
   142   146   147   ar
   143   164   163    2
   144   161   162    1
   145   161   154   am
   146    96    95    1
   147   203   205   ar
   148    83    85    1
   149    83    84    1
   150    83    80    1
   151   162   163    1
   152   200   202   ar
   153   193   191    1
   154   191   188    1
   155   191   192    1
   156    65    66   ar
   157   163   165   am
   158   152   153    1
   159    79    80    1
   160    79    70   am
   161   153   154    1
   162   153   156    1
   163   169   166    1
   164   188   187    1
   165    69    70    1
   166    69    68    1
   167    81    80    1
   168   154   155    2
   169   165   166    1
   170   205   206    1
   171   205   204   ar
   172   187   185   am
   173   192   194    1
   174   157   156    1
   175   157   158    1
   176    70    71    2
   177   202   204   ar
   178    95    89   am
   179   166   167    1
   180    90    89    2
   181   158   159   ar
   182   158   160   ar
   183    89    88    1
   184   185   184    1
   185   185   186    2
   186   184   183    1
   187    93    92   ar
   188   167   168    2
   189    94    92   ar
   190    92    91    1
   191   174   173    2
   192    88    91    1
   193    88    87    1
   194   183   173   am
   195   173   172    1
   196   172   171    1
   197   172   175    1
   198   175   176    1
   199   176   178   ar
   200   176   177   ar
   201   178   180   ar
   202   177   179   ar
   203   180   181   ar
   204   179   181   ar
   205   181   182    1
