@<TRIPOS>MOLECULE
tmp/2vwmA00.pdb
 212 208 0 0 0
SMALL
GASTEIGER

@<TRIPOS>ATOM
      1  N         12.2470   16.0300   31.9140 N.3    81  LYS81      -0.1231
      2  CA        13.0500   15.1510   31.0660 C.3    81  LYS81       0.1693
      3  C         14.5050   15.0910   31.5200 C.2    81  LYS81       0.2592
      4  O         15.1930   14.0890   31.3320 O.2    81  LYS81      -0.2718
      5  CB        12.9760   15.6280   29.6050 C.3    81  LYS81       0.0285
      6  CG        11.6750   15.2670   28.9130 C.3    81  LYS81       0.0035
      7  CD        11.0260   16.4760   28.2110 C.3    81  LYS81       0.0206
      8  CE        10.5970   17.5460   29.2170 C.3    81  LYS81       0.1093
      9  NZ         9.6810   18.5360   28.6110 N.3    81  LYS81      -0.1314
     10  N         14.9620   16.1920   32.1130 N.am   82  GLU82      -0.1966
     11  CA        16.3090   16.2840   32.6700 C.3    82  GLU82       0.1733
     12  C         16.5590   15.1190   33.6150 C.2    82  GLU82       0.2617
     13  O         17.6330   14.5100   33.5730 O.2    82  GLU82      -0.2715
     14  CB        16.4790   17.6160   33.4190 C.3    82  GLU82       0.0429
     15  CG        17.5400   17.5970   34.5060 C.3    82  GLU82       0.1163
     16  CD        17.2630   18.5890   35.6230 C.2    82  GLU82       0.3649
     17  OE1       16.1020   19.0460   35.7510 O.co2  82  GLU82      -0.2457
     18  OE2       18.2030   18.8880   36.3890 O.co2  82  GLU82      -0.2457
     19  N         15.5580   14.7980   34.4340 N.am   83  THR83      -0.1937
     20  CA        15.7100   13.7800   35.4760 C.3    83  THR83       0.2028
     21  C         14.8800   12.5040   35.2960 C.2    83  THR83       0.2642
     22  O         15.2570   11.4470   35.8080 O.2    83  THR83      -0.2714
     23  CB        15.3940   14.3540   36.8620 C.3    83  THR83       0.1808
     24  OG1       14.0340   14.7970   36.9030 O.3    83  THR83      -0.2208
     25  CG2       16.3120   15.5260   37.1930 C.3    83  THR83       0.0379
     26  N         13.7710   12.6180   34.5640 N.am   84  TYR84      -0.1973
     27  CA        12.7410   11.5830   34.4770 C.3    84  TYR84       0.1639
     28  C         12.1420   11.3020   35.8310 C.2    84  TYR84       0.2290
     29  O         11.4380   10.3200   35.9930 O.2    84  TYR84      -0.2864
     30  CB        13.2650   10.2940   33.8370 C.3    84  TYR84       0.0560
     31  CG        13.0050   10.2330   32.3650 C.ar   84  TYR84      -0.0198
     32  CD1       13.5410   11.2090   31.5040 C.ar   84  TYR84      -0.0009
     33  CD2       12.2280    9.2130   31.8110 C.ar   84  TYR84      -0.0009
     34  CE1       13.3070   11.1680   30.1390 C.ar   84  TYR84       0.0417
     35  CE2       11.9810    9.1710   30.4350 C.ar   84  TYR84       0.0417
     36  CZ        12.5300   10.1520   29.6080 C.ar   84  TYR84       0.1957
     37  OH        12.3030   10.1300   28.2410 O.3    84  TYR84      -0.2866
     38  N          8.2440   -2.2460   21.3240 N.3   131  ARG131     -0.1245
     39  CA         9.2050   -3.0090   20.5250 C.3   131  ARG131      0.1563
     40  C          9.5200   -4.3260   21.1910 C.2   131  ARG131      0.2260
     41  O          9.6080   -4.4250   22.4070 O.2   131  ARG131     -0.2867
     42  CB        10.4900   -2.2280   20.2580 C.3   131  ARG131      0.0307
     43  CG        10.2760   -0.8800   19.5360 C.3   131  ARG131      0.0489
     44  CD        11.5880   -0.3140   19.0120 C.3   131  ARG131      0.2205
     45  NE        11.3640    0.7380   18.0150 N.pl3 131  ARG131     -0.0865
     46  CZ        12.3340    1.4710   17.4690 C.cat 131  ARG131      0.5346
     47  NH1       13.6010    1.2720   17.8160 N.pl3 131  ARG131      0.1354
     48  NH2       12.0410    2.4050   16.5670 N.pl3 131  ARG131      0.1354
     49  N         15.1340   -4.0300   21.1790 N.3   134  GLU134     -0.1231
     50  CA        15.5700   -2.6230   21.2650 C.3   134  GLU134      0.1699
     51  C         15.4620   -1.8800   19.9190 C.2   134  GLU134      0.2592
     52  O         14.9790   -0.7480   19.8580 O.2   134  GLU134     -0.2718
     53  CB        17.0090   -2.5170   21.7980 C.3   134  GLU134      0.0402
     54  CG        17.4480   -1.0880   22.1360 C.3   134  GLU134      0.1161
     55  CD        18.8320   -1.0190   22.7600 C.2   134  GLU134      0.3649
     56  OE1       19.2160   -1.9410   23.5170 O.co2 134  GLU134     -0.2457
     57  OE2       19.5420   -0.0260   22.4960 O.co2 134  GLU134     -0.2457
     58  N         15.9230   -2.5160   18.8440 N.am  135  LYS135     -0.1980
     59  CA        15.8900   -1.9120   17.4950 C.3   135  LYS135      0.1596
     60  C         14.8060   -2.5480   16.6300 C.2   135  LYS135      0.2287
     61  O         14.7010   -2.2750   15.4280 O.2   135  LYS135     -0.2864
     62  CB        17.2520   -2.0940   16.8090 C.3   135  LYS135      0.0298
     63  CG        18.3580   -1.2600   17.4120 C.3   135  LYS135      0.0038
     64  CD        19.5200   -2.1400   17.8700 C.3   135  LYS135      0.0206
     65  CE        20.7570   -1.3030   18.1590 C.3   135  LYS135      0.1093
     66  NZ        21.5380   -1.8140   19.3310 N.3   135  LYS135     -0.1314
     67  N         22.3000    6.6630   35.1220 N.3   161  PHE161     -0.1227
     68  CA        21.5440    7.8260   35.5230 C.3   161  PHE161      0.1736
     69  C         21.0300    7.6550   36.9520 C.2   161  PHE161      0.2595
     70  O         20.9540    6.5390   37.4750 O.2   161  PHE161     -0.2718
     71  CB        20.3790    8.0840   34.5610 C.3   161  PHE161      0.0547
     72  CG        20.7940    8.2150   33.1100 C.ar  161  PHE161     -0.0202
     73  CD1       21.0600    9.4530   32.5630 C.ar  161  PHE161     -0.0042
     74  CD2       20.9240    7.1060   32.3150 C.ar  161  PHE161     -0.0042
     75  CE1       21.4400    9.5780   31.2410 C.ar  161  PHE161     -0.0003
     76  CE2       21.2920    7.2190   30.9880 C.ar  161  PHE161     -0.0003
     77  CZ        21.5570    8.4620   30.4520 C.ar  161  PHE161     -0.0000
     78  N         20.6810    8.7710   37.5670 N.am  162  ILE162     -0.1980
     79  CA        20.2480    8.7930   38.9510 C.3   162  ILE162      0.1595
     80  C         18.8800    8.1370   39.1070 C.2   162  ILE162      0.2287
     81  O         17.8960    8.5760   38.5270 O.2   162  ILE162     -0.2864
     82  CB        20.1690   10.2360   39.4680 C.3   162  ILE162      0.0276
     83  CG1       21.5790   10.8250   39.6110 C.3   162  ILE162      0.0022
     84  CG2       19.4490   10.3190   40.8110 C.3   162  ILE162      0.0022
     85  CD1       21.5690   12.2450   40.1340 C.3   162  ILE162      0.0001
     86  N         11.3510    6.0210   41.6950 N.3   167  MET167     -0.1245
     87  CA        11.6130    4.9730   40.6950 C.3   167  MET167      0.1570
     88  C         11.9520    3.6550   41.3540 C.2   167  MET167      0.2261
     89  O         12.4540    3.6480   42.4660 O.2   167  MET167     -0.2867
     90  CB        12.8150    5.3440   39.8380 C.3   167  MET167      0.0387
     91  CG        12.6600    6.6760   39.1170 C.3   167  MET167      0.0595
     92  SD        14.2480    7.1640   38.5250 S.3   167  MET167     -0.1393
     93  CE        13.9000    8.9400   38.2510 C.3   167  MET167      0.0692
     94  N         12.5380   -7.7660   28.9650 N.3   178  ASP178     -0.1225
     95  CA        12.4010   -6.3960   29.4360 C.3   178  ASP178      0.1805
     96  C         11.2100   -5.7820   28.7270 C.2   178  ASP178      0.2598
     97  O         10.6700   -6.3740   27.7940 O.2   178  ASP178     -0.2718
     98  CB        13.6830   -5.6090   29.1080 C.3   178  ASP178      0.1424
     99  CG        13.8780   -4.3630   29.9890 C.2   178  ASP178      0.3668
    100  OD1       13.0640   -4.0720   30.8820 O.co2 178  ASP178     -0.2456
    101  OD2       14.8610   -3.6450   29.7540 O.co2 178  ASP178     -0.2456
    102  N         10.7910   -4.6130   29.2110 N.am  179  ALA179     -0.1966
    103  CA         9.9350   -3.6960   28.4910 C.3   179  ALA179      0.1728
    104  C         10.8530   -2.9760   27.5250 C.2   179  ALA179      0.2616
    105  O         12.0640   -3.1370   27.6090 O.2   179  ALA179     -0.2715
    106  CB         9.3270   -2.6830   29.4510 C.3   179  ALA179      0.0334
    107  N         10.2830   -2.1680   26.6360 N.am  180  CYS180     -0.1954
    108  CA        11.0650   -1.4320   25.6200 C.3   180  CYS180      0.1843
    109  C         10.2720   -0.2350   25.1190 C.2   180  CYS180      0.2625
    110  O          9.1470    0.0120   25.5640 O.2   180  CYS180     -0.2714
    111  CB        11.4020   -2.3650   24.4460 C.3   180  CYS180      0.0997
    112  SG        12.8140   -1.9030   23.3750 S.3   180  CYS180     -0.0797
    113  N         10.8570    0.5030   24.1710 N.am  181  GLN181     -0.1977
    114  CA        10.2140    1.6480   23.5400 C.3   181  GLN181      0.1601
    115  C          8.7990    1.2560   23.1430 C.2   181  GLN181      0.2287
    116  O          8.6060    0.1770   22.6220 O.2   181  GLN181     -0.2864
    117  CB        11.0320    2.0390   22.3010 C.3   181  GLN181      0.0394
    118  CG        10.6210    3.3380   21.6270 C.3   181  GLN181      0.0908
    119  CD        11.5810    3.7190   20.5040 C.2   181  GLN181      0.2608
    120  OE1       12.2170    2.8510   19.9060 O.2   181  GLN181     -0.2717
    121  NE2       11.6970    5.0140   20.2280 N.am  181  GLN181     -0.0878
    122  N          6.3480    2.3050   27.3340 N.3   184  SER184     -0.1217
    123  CA         6.3910    3.3470   28.3500 C.3   184  SER184      0.1889
    124  C          5.0000    3.8010   28.6840 C.2   184  SER184      0.2288
    125  O          4.1600    3.9370   27.7770 O.2   184  SER184     -0.2866
    126  CB         7.1770    4.5540   27.8470 C.3   184  SER184      0.2089
    127  OG         8.5300    4.3690   28.1200 O.3   184  SER184     -0.2183
    128  N          5.8260    1.7340   33.4690 N.3   202  VAL202     -0.1231
    129  CA         7.0560    1.5400   32.6980 C.3   202  VAL202      0.1692
    130  C          7.5410    2.9450   32.4340 C.2   202  VAL202      0.2593
    131  O          6.7830    3.7730   31.9300 O.2   202  VAL202     -0.2718
    132  CB         6.7360    0.8400   31.3550 C.3   202  VAL202      0.0266
    133  CG1        7.9950    0.7040   30.4790 C.3   202  VAL202      0.0020
    134  CG2        6.1040   -0.5160   31.6170 C.3   202  VAL202      0.0020
    135  N          8.8020    3.2200   32.7450 N.am  203  SER203     -0.1938
    136  CA         9.2660    4.5920   32.7040 C.3   203  SER203      0.2055
    137  C         10.4590    4.7510   31.7830 C.2   203  SER203      0.2643
    138  O         10.3670    5.4910   30.8060 O.2   203  SER203     -0.2714
    139  CB         9.5800    5.1030   34.1180 C.3   203  SER203      0.2130
    140  OG        10.0360    6.4510   34.0850 O.3   203  SER203     -0.2179
    141  N         11.5520    4.0410   32.0510 N.am  204  TRP204     -0.1959
    142  CA        12.7130    4.1560   31.1720 C.3   204  TRP204      0.1771
    143  C         13.7240    3.0610   31.3400 C.2   204  TRP204      0.2620
    144  O         13.6800    2.3020   32.2960 O.2   204  TRP204     -0.2715
    145  CB        13.4190    5.4990   31.3810 C.3   204  TRP204      0.0590
    146  CG        13.9720    5.7540   32.7620 C.ar  204  TRP204      0.0006
    147  CD1       13.3110    6.3130   33.8040 C.ar  204  TRP204      0.0946
    148  CD2       15.3280    5.5360   33.2210 C.ar  204  TRP204      0.0152
    149  NE1       14.1470    6.4310   34.8950 N.ar  204  TRP204     -0.2442
    150  CE2       15.3930    5.9820   34.5580 C.ar  204  TRP204      0.0810
    151  CE3       16.4880    5.0140   32.6260 C.ar  204  TRP204      0.0012
    152  CZ2       16.5610    5.9070   35.3170 C.ar  204  TRP204      0.0191
    153  CZ3       17.6450    4.9170   33.3790 C.ar  204  TRP204      0.0001
    154  CH2       17.6780    5.3680   34.7180 C.ar  204  TRP204      0.0015
    155  N         14.6560    2.9900   30.3860 N.am  205  GLY205     -0.1940
    156  CA        15.7290    2.0120   30.4180 C.3   205  GLY205      0.2014
    157  C         16.8340    2.4710   29.4880 C.2   205  GLY205      0.2639
    158  O         16.6060    3.2370   28.5650 O.2   205  GLY205     -0.2714
    159  N         18.0500    2.0660   29.7640 N.am  206  GLU206     -0.1963
    160  CA        19.1430    2.3940   28.8500 C.3   206  GLU206      0.1733
    161  C         19.1210    1.3000   27.7860 C.2   206  GLU206      0.2617
    162  O         19.6820    0.2340   27.9810 O.2   206  GLU206     -0.2715
    163  CB        20.4690    2.4390   29.6200 C.3   206  GLU206      0.0429
    164  CG        20.4720    3.4890   30.7410 C.3   206  GLU206      0.1163
    165  CD        21.7180    3.4270   31.6090 C.2   206  GLU206      0.3649
    166  OE1       22.8100    3.2720   31.0450 O.co2 206  GLU206     -0.2457
    167  OE2       21.6050    3.5350   32.8460 O.co2 206  GLU206     -0.2457
    168  N         18.4030    1.5430   26.6910 N.am  207  GLY207     -0.1940
    169  CA        18.1590    0.4830   25.7140 C.3   207  GLY207      0.2014
    170  C         17.0310   -0.4050   26.2240 C.2   207  GLY207      0.2639
    171  O         16.1440    0.0590   26.9310 O.2   207  GLY207     -0.2714
    172  N         17.0840   -1.6890   25.8980 N.am  208  CYS208     -0.1967
    173  CA        16.0480   -2.6140   26.2920 C.3   208  CYS208      0.1712
    174  C         16.7080   -3.9560   26.4620 C.2   208  CYS208      0.2296
    175  O         17.3600   -4.4380   25.5340 O.2   208  CYS208     -0.2864
    176  CB        15.0050   -2.7440   25.1810 C.3   208  CYS208      0.0983
    177  SG        14.2610   -1.2290   24.6350 S.3   208  CYS208     -0.0798
    178  N         19.3100   -4.7100   28.0280 N.3   210  ARG210     -0.1245
    179  CA        20.7760   -4.6740   27.9840 C.3   210  ARG210      0.1563
    180  C         21.4080   -5.4420   29.1330 C.2   210  ARG210      0.2260
    181  O         20.8560   -5.5320   30.2370 O.2   210  ARG210     -0.2867
    182  CB        21.3190   -3.2340   27.9270 C.3   210  ARG210      0.0307
    183  CG        21.2640   -2.5770   26.5590 C.3   210  ARG210      0.0489
    184  CD        22.0020   -1.2210   26.4760 C.3   210  ARG210      0.2205
    185  NE        21.5140   -0.4240   25.3460 N.pl3 210  ARG210     -0.0865
    186  CZ        21.7500    0.8780   25.1710 C.cat 210  ARG210      0.5346
    187  NH1       22.4930    1.5580   26.0380 N.pl3 210  ARG210      0.1354
    188  NH2       21.2380    1.5090   24.1220 N.pl3 210  ARG210      0.1354
    189  N         15.0080   -2.6120   33.8050 N.3   215  GLY215     -0.1210
    190  CA        13.8820   -1.7220   33.5240 C.3   215  GLY215      0.1956
    191  C         13.6480   -0.7580   34.6770 C.2   215  GLY215      0.2612
    192  O         13.6910   -1.1620   35.8450 O.2   215  GLY215     -0.2717
    193  N         13.4130    0.5210   34.3790 N.am  216  ILE216     -0.1965
    194  CA        13.1060    1.4920   35.4470 C.3   216  ILE216      0.1727
    195  C         11.6410    1.9130   35.3750 C.2   216  ILE216      0.2616
    196  O         11.1420    2.2990   34.3150 O.2   216  ILE216     -0.2715
    197  CB        14.0490    2.7210   35.4210 C.3   216  ILE216      0.0290
    198  CG1       15.5180    2.2630   35.2280 C.3   216  ILE216      0.0022
    199  CG2       13.8500    3.6080   36.6940 C.3   216  ILE216      0.0023
    200  CD1       15.9980    1.1710   36.1530 C.3   216  ILE216      0.0001
    201  N         10.9560    1.8130   36.5240 N.am  217  TYR217     -0.1974
    202  CA         9.5330    2.0140   36.6480 C.3   217  TYR217      0.1639
    203  C          9.2110    3.1280   37.6260 C.2   217  TYR217      0.2290
    204  O          9.8620    3.2490   38.6580 O.2   217  TYR217     -0.2864
    205  CB         8.9040    0.7300   37.2040 C.3   217  TYR217      0.0560
    206  CG         9.0430   -0.4150   36.2430 C.ar  217  TYR217     -0.0198
    207  CD1        7.9750   -0.7850   35.4200 C.ar  217  TYR217     -0.0009
    208  CD2       10.2300   -1.1000   36.1360 C.ar  217  TYR217     -0.0009
    209  CE1        8.0700   -1.8170   34.5400 C.ar  217  TYR217      0.0417
    210  CE2       10.3500   -2.1510   35.2300 C.ar  217  TYR217      0.0417
    211  CZ         9.2780   -2.4850   34.4280 C.ar  217  TYR217      0.1957
    212  OH         9.3820   -3.5210   33.5520 O.3   217  TYR217     -0.2866
@<TRIPOS>BOND
     1    61    60    2
     2    48    46    1
     3    60    59    1
     4    62    63    1
     5    62    59    1
     6    63    64    1
     7    46    47    1
     8    46    45    2
     9    59    58    1
    10    64    65    1
    11    45    44    1
    12    65    66    1
    13    58    51   am
    14    44    43    1
    15    43    42    1
    16    52    51    2
    17   120   119    2
    18    51    50    1
    19   121   119   am
    20    42    39    1
    21   119   118    1
    22    39    40    1
    23    39    38    1
    24    49    50    1
    25    40    41    2
    26    50    53    1
    27   118   117    1
    28    53    54    1
    29    54    55    1
    30   117   114    1
    31    57    55   ar
    32   116   115    2
    33    55    56   ar
    34   115   114    1
    35   112   111    1
    36   112   177    1
    37   114   113    1
    38   188   186    1
    39   113   109   am
    40   111   108    1
    41   177   176    1
    42   109   110    2
    43   109   108    1
    44   186   185    2
    45   186   187    1
    46   176   173    1
    47   185   184    1
    48   175   174    2
    49   108   107    1
    50   169   170    1
    51   169   168    1
    52   172   170   am
    53   172   173    1
    54   170   171    2
    55   173   174    1
    56   184   183    1
    57   183   182    1
    58   107   104   am
    59   168   161   am
    60   122   123    1
    61   104   105    2
    62   104   103    1
    63   125   124    2
    64   161   162    2
    65   161   160    1
    66    97    96    2
    67   126   127    1
    68   126   123    1
    69   182   179    1
    70   179   178    1
    71   179   180    1
    72     7     6    1
    73     7     8    1
    74    37    36    1
    75   123   124    1
    76   103   102    1
    77   103   106    1
    78   158   157    2
    79     9     8    1
    80    96   102   am
    81    96    95    1
    82   160   163    1
    83   160   159    1
    84     6     5    1
    85    94    95    1
    86    98    95    1
    87    98    99    1
    88   180   181    2
    89   157   159   am
    90   157   156    1
    91     5     2    1
    92    36    34   ar
    93    36    35   ar
    94   163   164    1
    95   101    99   ar
    96    99   100   ar
    97    34    32   ar
    98   155   156    1
    99   155   143   am
   100    35    33   ar
   101    77    76   ar
   102    77    75   ar
   103   133   132    1
   104   164   165    1
   105   138   137    2
   106    76    74   ar
   107   166   165   ar
   108     2     3    1
   109     2     1    1
   110   142   143    1
   111   142   145    1
   112   142   141    1
   113    75    73   ar
   114     4     3    2
   115   143   144    2
   116   132   134    1
   117   132   129    1
   118   145   146    1
   119    32    31   ar
   120     3    10   am
   121   165   167   ar
   122   137   141   am
   123   137   136    1
   124    33    31   ar
   125   131   130    2
   126    10    11    1
   127    74    72   ar
   128    31    30    1
   129   130   129    1
   130   130   135   am
   131    73    72   ar
   132   151   148   ar
   133   151   153   ar
   134    11    14    1
   135    11    12    1
   136   129   128    1
   137   136   135    1
   138   136   139    1
   139   146   148   ar
   140   146   147   ar
   141    72    71    1
   142   148   150   ar
   143   153   154   ar
   144    14    15    1
   145   190   189    1
   146   190   191    1
   147   212   211    1
   148    13    12    2
   149    12    19   am
   150   147   149   ar
   151    30    27    1
   152   140   139    1
   153   196   195    2
   154   193   191   am
   155   193   194    1
   156   211   209   ar
   157   211   210   ar
   158    19    20    1
   159    27    26    1
   160    27    28    1
   161    15    16    1
   162   209   207   ar
   163   150   149   ar
   164   150   152   ar
   165    71    68    1
   166    26    21   am
   167   191   192    2
   168   154   152   ar
   169    67    68    1
   170   198   197    1
   171   198   200    1
   172   210   208   ar
   173    21    20    1
   174    21    22    2
   175   195   194    1
   176   195   201   am
   177   207   206   ar
   178   197   194    1
   179   197   199    1
   180    20    23    1
   181    68    69    1
   182    16    17   ar
   183    16    18   ar
   184    28    29    2
   185   208   206   ar
   186   206   205    1
   187   201   202    1
   188   202   205    1
   189   202   203    1
   190    23    24    1
   191    23    25    1
   192    69    70    2
   193    69    78   am
   194    78    79    1
   195   203   204    2
   196    93    92    1
   197    92    91    1
   198    81    80    2
   199    79    80    1
   200    79    82    1
   201    91    90    1
   202    82    83    1
   203    82    84    1
   204    83    85    1
   205    90    87    1
   206    87    88    1
   207    87    86    1
   208    88    89    2
