@<TRIPOS>MOLECULE
tmp/2vwpA00.pdb
 205 196 0 0 0
SMALL
GASTEIGER

@<TRIPOS>ATOM
      1  N          6.4110   31.0740   27.3670 N.3    38  ASP38      -0.1225
      2  CA         5.8680   30.7360   26.0820 C.3    38  ASP38       0.1805
      3  C          6.1930   29.2750   25.7500 C.2    38  ASP38       0.2598
      4  O          7.0550   28.6750   26.3920 O.2    38  ASP38      -0.2718
      5  CB         6.5490   31.6360   25.0540 C.3    38  ASP38       0.1424
      6  CG         5.9960   31.4580   23.6960 C.2    38  ASP38       0.3668
      7  OD1        4.8240   31.7870   23.5080 O.co2  38  ASP38      -0.2456
      8  OD2        6.7290   30.9700   22.8210 O.co2  38  ASP38      -0.2456
      9  N          5.5040   28.7250   24.7490 N.am   39  GLY39      -0.1942
     10  CA         5.8230   27.4240   24.1510 C.3    39  GLY39       0.2014
     11  C          7.2790   27.2210   23.7870 C.2    39  GLY39       0.2639
     12  O          7.8230   26.1360   24.0130 O.2    39  GLY39      -0.2714
     13  N          7.9320   28.2560   23.2520 N.am   40  THR40      -0.1950
     14  CA         9.3560   28.1560   22.9100 C.3    40  THR40       0.1897
     15  C         10.2320   27.8810   24.1180 C.2    40  THR40       0.2313
     16  O         11.2630   27.2250   23.9890 O.2    40  THR40      -0.2863
     17  CB         9.9400   29.4090   22.1610 C.3    40  THR40       0.1794
     18  OG1       10.1090   30.4890   23.0840 O.3    40  THR40      -0.2208
     19  CG2        9.0540   29.8330   20.9990 C.3    40  THR40       0.0378
     20  N          9.8350   24.2210   24.6870 N.3    43  GLU43      -0.1245
     21  CA        10.6610   23.5320   23.6850 C.3    43  GLU43       0.1567
     22  C         12.1610   23.4890   24.0380 C.2    43  GLU43       0.2260
     23  O         12.8270   22.4720   23.7900 O.2    43  GLU43      -0.2867
     24  CB        10.5040   24.1720   22.3010 C.3    43  GLU43       0.0388
     25  CG         9.1140   24.1070   21.6790 C.3    43  GLU43       0.1160
     26  CD         8.9240   25.1760   20.6060 C.2    43  GLU43       0.3649
     27  OE1        9.9170   25.4860   19.9050 O.co2  43  GLU43      -0.2457
     28  OE2        7.7940   25.7130   20.4740 O.co2  43  GLU43      -0.2457
     29  N         11.6640   35.2760   26.4320 N.3    63  HIS63      -0.1241
     30  CA        11.8330   36.3180   25.4050 C.3    63  HIS63       0.1621
     31  C         10.7490   37.4150   25.4390 C.2    63  HIS63       0.2264
     32  O         10.7520   38.3290   24.5890 O.2    63  HIS63      -0.2867
     33  CB        11.9070   35.6720   24.0110 C.3    63  HIS63       0.0745
     34  CG        10.6220   35.0390   23.5700 C.ar   63  HIS63       0.0817
     35  ND1       10.3150   33.7200   23.8240 N.ar   63  HIS63      -0.2268
     36  CD2        9.5620   35.5470   22.8970 C.ar   63  HIS63       0.1154
     37  CE1        9.1220   33.4410   23.3290 C.ar   63  HIS63       0.1986
     38  NE2        8.6500   34.5290   22.7490 N.ar   63  HIS63      -0.2212
     39  N          3.6330   40.0250   17.6720 N.3   154  ILE154     -0.1245
     40  CA         3.6870   38.9370   16.6950 C.3   154  ILE154      0.1561
     41  C          2.4720   38.9930   15.7490 C.2   154  ILE154      0.2260
     42  O          2.6020   38.8820   14.5070 O.2   154  ILE154     -0.2867
     43  CB         3.7410   37.5500   17.4040 C.3   154  ILE154      0.0252
     44  CG1        5.0450   37.3800   18.2110 C.3   154  ILE154      0.0019
     45  CG2        3.5140   36.4250   16.3850 C.3   154  ILE154      0.0019
     46  CD1        6.3500   37.2850   17.3570 C.3   154  ILE154      0.0001
     47  N         -6.6130   27.7490   16.8310 N.3   180  GLY180     -0.1210
     48  CA        -5.7290   27.6490   18.0030 C.3   180  GLY180      0.1956
     49  C         -6.2330   28.4370   19.1910 C.2   180  GLY180      0.2612
     50  O         -6.6370   29.6040   19.0520 O.2   180  GLY180     -0.2717
     51  N         -6.1680   27.8050   20.3640 N.am  181  ASN181     -0.1960
     52  CA        -6.6480   28.3890   21.6200 C.3   181  ASN181      0.1819
     53  C         -5.5250   28.4770   22.6570 C.2   181  ASN181      0.2622
     54  O         -5.7720   28.4520   23.8610 O.2   181  ASN181     -0.2715
     55  CB        -7.8340   27.5750   22.1720 C.3   181  ASN181      0.1195
     56  CG        -7.4730   26.0960   22.4130 C.2   181  ASN181      0.2630
     57  OD1       -6.7170   25.4930   21.6480 O.2   181  ASN181     -0.2716
     58  ND2       -7.9930   25.5270   23.4950 N.am  181  ASN181     -0.0877
     59  N         -4.2850   28.5730   22.1810 N.am  182  GLY182     -0.1940
     60  CA        -3.1470   28.8990   23.0450 C.3   182  GLY182      0.2014
     61  C         -3.2020   30.4080   23.2980 C.2   182  GLY182      0.2640
     62  O         -4.0970   31.0770   22.8050 O.2   182  GLY182     -0.2714
     63  N         -2.2780   30.9440   24.0800 N.am  183  SER183     -0.1935
     64  CA        -2.3310   32.3780   24.4220 C.3   183  SER183      0.2055
     65  C         -2.2260   33.2700   23.1790 C.2   183  SER183      0.2643
     66  O         -2.8910   34.3120   23.1070 O.2   183  SER183     -0.2714
     67  CB        -1.2700   32.7400   25.4750 C.3   183  SER183      0.2130
     68  OG         0.0110   32.3990   25.0090 O.3   183  SER183     -0.2179
     69  N         -1.4390   32.8540   22.1820 N.am  184  LEU184     -0.1963
     70  CA        -1.3810   33.6120   20.9240 C.3   184  LEU184      0.1728
     71  C         -2.7220   33.6560   20.1940 C.2   184  LEU184      0.2616
     72  O         -3.1570   34.7260   19.7430 O.2   184  LEU184     -0.2715
     73  CB        -0.2880   33.1130   19.9710 C.3   184  LEU184      0.0311
     74  CG        -0.0180   34.0040   18.7390 C.3   184  LEU184      0.0022
     75  CD1        0.5730   35.3630   19.1700 C.3   184  LEU184      0.0001
     76  CD2        0.8970   33.3020   17.7330 C.3   184  LEU184      0.0001
     77  N         -3.3600   32.4930   20.0440 N.am  185  GLY185     -0.1955
     78  CA        -4.6520   32.4390   19.3940 C.3   185  GLY185      0.1869
     79  C         -5.6610   33.3210   20.1230 C.2   185  GLY185      0.2309
     80  O         -6.4510   34.0330   19.4780 O.2   185  GLY185     -0.2863
     81  N        -10.8450   27.9570   16.7790 N.3   205  LEU205     -0.1231
     82  CA       -10.7500   26.5090   16.7470 C.3   205  LEU205      0.1693
     83  C         -9.9270   25.9630   17.8990 C.2   205  LEU205      0.2593
     84  O         -8.8360   26.4570   18.1930 O.2   205  LEU205     -0.2718
     85  CB       -10.1340   26.0530   15.4050 C.3   205  LEU205      0.0284
     86  CG       -10.1300   24.5380   15.1430 C.3   205  LEU205      0.0019
     87  CD1      -11.3920   24.1720   14.3870 C.3   205  LEU205      0.0001
     88  CD2       -8.8780   24.0920   14.3770 C.3   205  LEU205      0.0001
     89  N        -10.4690   24.9460   18.5640 N.am  206  GLY206     -0.1942
     90  CA        -9.7670   24.2470   19.6220 C.3   206  GLY206      0.2014
     91  C        -10.2540   22.8060   19.6340 C.2   206  GLY206      0.2639
     92  O        -10.9860   22.3810   18.7270 O.2   206  GLY206     -0.2714
     93  N         -9.8550   22.0560   20.6540 N.am  207  ARG207     -0.1963
     94  CA       -10.3180   20.6740   20.8040 C.3   207  ARG207      0.1729
     95  C        -10.4470   20.2840   22.2900 C.2   207  ARG207      0.2616
     96  O         -9.9730   19.2420   22.7160 O.2   207  ARG207     -0.2715
     97  CB        -9.4030   19.7180   20.0350 C.3   207  ARG207      0.0348
     98  CG        -7.9540   19.8700   20.3740 C.3   207  ARG207      0.0492
     99  CD        -7.0880   19.0770   19.4410 C.3   207  ARG207      0.2205
    100  NE        -5.6800   19.2130   19.8240 N.pl3 207  ARG207     -0.0865
    101  CZ        -4.6700   18.6680   19.1560 C.cat 207  ARG207      0.5346
    102  NH1       -4.9180   17.9390   18.0740 N.pl3 207  ARG207      0.1354
    103  NH2       -3.4210   18.8430   19.5720 N.pl3 207  ARG207      0.1354
    104  N        -11.1050   21.1460   23.0630 N.am  208  ARG208     -0.1977
    105  CA       -11.2350   20.9460   24.5050 C.3   208  ARG208      0.1597
    106  C        -12.6380   20.4930   24.8340 C.2   208  ARG208      0.2287
    107  O        -13.5850   20.7990   24.1040 O.2   208  ARG208     -0.2864
    108  CB       -10.9500   22.2570   25.2550 C.3   208  ARG208      0.0334
    109  CG        -9.5770   22.8480   24.9500 C.3   208  ARG208      0.0492
    110  CD        -8.4990   22.0240   25.5980 C.3   208  ARG208      0.2205
    111  NE        -7.1640   22.5640   25.3780 N.pl3 208  ARG208     -0.0865
    112  CZ        -6.5820   23.5110   26.1200 C.cat 208  ARG208      0.5346
    113  NH1       -7.2330   24.0950   27.1320 N.pl3 208  ARG208      0.1354
    114  NH2       -5.3420   23.9020   25.8170 N.pl3 208  ARG208      0.1354
    115  N        -12.6540   21.1070   16.8140 N.3   228  SER228     -0.1217
    116  CA       -12.1860   20.4550   15.5940 C.3   228  SER228      0.1889
    117  C        -12.5540   18.9610   15.5250 C.2   228  SER228      0.2288
    118  O        -12.6310   18.3920   14.4370 O.2   228  SER228     -0.2866
    119  CB       -10.6840   20.6530   15.4180 C.3   228  SER228      0.2089
    120  OG        -9.9570   19.9430   16.4060 O.3   228  SER228     -0.2183
    121  N         -2.7010   29.4360   14.2000 N.3   249  ALA249     -0.1231
    122  CA        -1.8320   29.3890   15.3840 C.3   249  ALA249      0.1694
    123  C         -1.9340   28.0240   16.0890 C.2   249  ALA249      0.2593
    124  O         -2.0140   27.9540   17.3310 O.2   249  ALA249     -0.2718
    125  CB        -2.1860   30.5340   16.3560 C.3   249  ALA249      0.0304
    126  N         -1.9490   26.9490   15.2940 N.am  250  THR250     -0.1939
    127  CA        -1.9950   25.5800   15.8430 C.3   250  THR250      0.2028
    128  C         -0.6660   24.8640   15.6770 C.2   250  THR250      0.2643
    129  O         -0.3120   24.0070   16.4850 O.2   250  THR250     -0.2714
    130  CB        -3.1040   24.7020   15.1830 C.3   250  THR250      0.1808
    131  OG1       -2.9070   24.6720   13.7600 O.3   250  THR250     -0.2208
    132  CG2       -4.5040   25.2310   15.4970 C.3   250  THR250      0.0379
    133  N          0.0640   25.2070   14.6150 N.am  251  GLY251     -0.1939
    134  CA         1.2330   24.4390   14.2140 C.3   251  GLY251      0.2014
    135  C          0.8730   23.0830   13.6040 C.2   251  GLY251      0.2638
    136  O          1.7200   22.1960   13.5280 O.2   251  GLY251     -0.2714
    137  N         -0.3780   22.9320   13.1750 N.am  252  PHE252     -0.1973
    138  CA        -0.8950   21.6920   12.5530 C.3   252  PHE252      0.1639
    139  C         -0.8530   21.8020   11.0110 C.2   252  PHE252      0.2290
    140  O         -1.6410   22.5480   10.4370 O.2   252  PHE252     -0.2864
    141  CB        -2.3420   21.4970   13.0280 C.3   252  PHE252      0.0560
    142  CG        -2.8980   20.0960   12.8340 C.ar  252  PHE252     -0.0200
    143  CD1       -2.2720   18.9850   13.4080 C.ar  252  PHE252     -0.0042
    144  CD2       -4.0980   19.9050   12.1430 C.ar  252  PHE252     -0.0042
    145  CE1       -2.8080   17.6950   13.2490 C.ar  252  PHE252     -0.0003
    146  CE2       -4.6490   18.6250   11.9840 C.ar  252  PHE252     -0.0003
    147  CZ        -3.9960   17.5190   12.5310 C.ar  252  PHE252     -0.0000
    148  N         -3.8420   22.2460    8.7140 N.3   255  HIS255     -0.1241
    149  CA        -4.5140   23.5440    8.7480 C.3   255  HIS255      0.1621
    150  C         -4.0120   24.5260    7.6950 C.2   255  HIS255      0.2264
    151  O         -4.7940   25.3220    7.1960 O.2   255  HIS255     -0.2867
    152  CB        -4.4400   24.1600   10.1410 C.3   255  HIS255      0.0745
    153  CG        -5.2690   23.4370   11.1570 C.ar  255  HIS255      0.0817
    154  ND1       -5.0110   23.5020   12.5090 N.ar  255  HIS255     -0.2268
    155  CD2       -6.3410   22.6210   11.0160 C.ar  255  HIS255      0.1154
    156  CE1       -5.8980   22.7700   13.1590 C.ar  255  HIS255      0.1986
    157  NE2       -6.7100   22.2170   12.2760 N.ar  255  HIS255     -0.2212
    158  N          1.2080   31.2120   11.1750 N.3   272  LEU272     -0.1231
    159  CA         2.1620   31.5030   12.2660 C.3   272  LEU272      0.1693
    160  C          2.7800   30.2340   12.8390 C.2   272  LEU272      0.2593
    161  O          3.8280   30.2850   13.5080 O.2   272  LEU272     -0.2718
    162  CB         1.4660   32.2710   13.4160 C.3   272  LEU272      0.0284
    163  CG         1.0610   33.7520   13.3130 C.3   272  LEU272      0.0019
    164  CD1        2.2970   34.6480   13.3900 C.3   272  LEU272      0.0001
    165  CD2        0.1840   34.0900   12.0810 C.3   272  LEU272      0.0001
    166  N          2.1340   29.0980   12.5810 N.am  273  GLY273     -0.1942
    167  CA         2.5670   27.8010   13.1270 C.3   273  GLY273      0.2014
    168  C          3.9090   27.3210   12.6300 C.2   273  GLY273      0.2638
    169  O          4.2930   27.5750   11.4780 O.2   273  GLY273     -0.2714
    170  N          4.6370   26.6200   13.4950 N.am  274  VAL274     -0.1977
    171  CA         5.9530   26.0880   13.1350 C.3   274  VAL274      0.1596
    172  C          5.9980   24.5540   13.3180 C.2   274  VAL274      0.2287
    173  O          6.4650   24.0630   14.3540 O.2   274  VAL274     -0.2864
    174  CB         7.1110   26.7950   13.9180 C.3   274  VAL274      0.0276
    175  CG1        8.4700   26.3990   13.3610 C.3   274  VAL274      0.0022
    176  CG2        6.9610   28.3250   13.8780 C.3   274  VAL274      0.0022
    177  N          4.3230   34.4330    8.5800 N.3   301  SER301     -0.1202
    178  CA         4.9050   35.5370    9.3410 C.3   301  SER301      0.2020
    179  C          5.6270   35.0250   10.5790 C.2   301  SER301      0.2619
    180  O          5.1420   34.1210   11.2670 O.2   301  SER301     -0.2717
    181  CB         3.8200   36.5570    9.7250 C.3   301  SER301      0.2103
    182  OG         4.3570   37.6310   10.4620 O.3   301  SER301     -0.2182
    183  N          6.7810   35.6130   10.8710 N.am  302  VAL302     -0.1965
    184  CA         7.5510   35.2180   12.0530 C.3   302  VAL302      0.1727
    185  C          8.1650   36.4470   12.7030 C.2   302  VAL302      0.2616
    186  O          8.5500   37.3910   12.0050 O.2   302  VAL302     -0.2715
    187  CB         8.6130   34.0960   11.7290 C.3   302  VAL302      0.0290
    188  CG1        9.6810   34.6040   10.7590 C.3   302  VAL302      0.0023
    189  CG2        9.2580   33.5630   13.0140 C.3   302  VAL302      0.0023
    190  N          8.1940   36.4570   14.0420 N.am  303  ASN303     -0.1972
    191  CA         8.8590   37.5090   14.8000 C.3   303  ASN303      0.1688
    192  C          8.0890   38.8360   14.6080 C.2   303  ASN303      0.2292
    193  O          6.9110   38.8370   14.2180 O.2   303  ASN303     -0.2864
    194  CB        10.3620   37.6020   14.3810 C.3   303  ASN303      0.1181
    195  CG        11.2200   38.4260   15.3390 C.2   303  ASN303      0.2629
    196  OD1       11.8080   39.4320   14.9370 O.2   303  ASN303     -0.2716
    197  ND2       11.3210   37.9910   16.5970 N.am  303  ASN303     -0.0877
    198  N         -4.3280   22.2560   30.6800 N.3   345  ASP345     -0.1239
    199  CA        -5.4540   22.9220   30.0480 C.3   345  ASP345      0.1674
    200  C         -5.9210   24.2090   30.7410 C.2   345  ASP345      0.2266
    201  O         -6.3410   25.1440   30.0630 O.2   345  ASP345     -0.2867
    202  CB        -6.6310   21.9540   29.9090 C.3   345  ASP345      0.1410
    203  CG        -6.4620   20.9910   28.7520 C.2   345  ASP345      0.3668
    204  OD1       -5.3740   20.9580   28.1300 O.co2 345  ASP345     -0.2456
    205  OD2       -7.4350   20.2710   28.4630 O.co2 345  ASP345     -0.2456
@<TRIPOS>BOND
     1   151   150    2
     2   150   149    1
     3   177   178    1
     4   148   149    1
     5   149   152    1
     6   178   181    1
     7   178   179    1
     8   181   182    1
     9   152   153    1
    10   140   139    2
    11   179   183   am
    12   179   180    2
    13   188   187    1
    14   183   184    1
    15   139   138    1
    16   155   153   ar
    17   155   157   ar
    18   153   154   ar
    19   158   159    1
    20   169   168    2
    21   187   184    1
    22   187   189    1
    23   146   144   ar
    24   146   147   ar
    25   186   185    2
    26   184   185    1
    27   165   163    1
    28   144   142   ar
    29   159   160    1
    30   159   162    1
    31   157   156   ar
    32   154   156   ar
    33   147   145   ar
    34   138   141    1
    35   138   137    1
    36   166   160   am
    37   166   167    1
    38   168   167    1
    39   168   170   am
    40   185   190   am
    41   142   141    1
    42   142   143   ar
    43   160   161    2
    44   171   172    1
    45   171   170    1
    46   171   174    1
    47   137   135   am
    48   145   143   ar
    49   163   164    1
    50   163   162    1
    51   172   173    2
    52   175   174    1
    53   136   135    2
    54   135   134    1
    55   131   130    1
    56   176   174    1
    57   190   191    1
    58   121   122    1
    59   134   133    1
    60   193   192    2
    61    88    86    1
    62   194   191    1
    63   194   195    1
    64    87    86    1
    65   118   117    2
    66    42    41    2
    67   192   191    1
    68   133   128   am
    69   196   195    2
    70    86    85    1
    71   130   132    1
    72   130   127    1
    73   126   127    1
    74   126   123   am
    75   195   197   am
    76   122   123    1
    77   122   125    1
    78    85    82    1
    79   119   116    1
    80   119   120    1
    81   117   116    1
    82   116   115    1
    83   128   127    1
    84   128   129    2
    85    41    40    1
    86   123   124    2
    87    45    43    1
    88    40    43    1
    89    40    39    1
    90    82    81    1
    91    82    83    1
    92    47    48    1
    93    46    44    1
    94    43    44    1
    95    76    74    1
    96    83    84    2
    97    83    89   am
    98    48    49    1
    99   102   101    1
   100    89    90    1
   101    92    91    2
   102    74    75    1
   103    74    73    1
   104    50    49    2
   105   101   103    1
   106   101   100    2
   107    49    51   am
   108    78    77    1
   109    78    79    1
   110    99   100    1
   111    99    98    1
   112    80    79    2
   113    90    91    1
   114    91    93   am
   115    72    71    2
   116    27    26   ar
   117    73    70    1
   118    97    98    1
   119    97    94    1
   120    77    71   am
   121    71    70    1
   122    51    52    1
   123    28    26   ar
   124    26    25    1
   125    93    94    1
   126    94    95    1
   127    70    69    1
   128    19    17    1
   129    52    55    1
   130    52    53    1
   131    57    56    2
   132    25    24    1
   133    17    14    1
   134    17    18    1
   135    55    56    1
   136    59    53   am
   137    59    60    1
   138    69    65   am
   139    95    96    2
   140    95   104   am
   141    24    21    1
   142    56    58   am
   143    53    54    2
   144    38    36   ar
   145    38    37   ar
   146    62    61    2
   147     8     6   ar
   148    36    34   ar
   149    14    13    1
   150    14    15    1
   151    60    61    1
   152   104   105    1
   153    66    65    2
   154    65    64    1
   155    13    11   am
   156    61    63   am
   157    37    35   ar
   158     7     6   ar
   159    34    35   ar
   160    34    33    1
   161    21    22    1
   162    21    20    1
   163     6     5    1
   164    11    12    2
   165    11    10    1
   166    23    22    2
   167    16    15    2
   168    33    30    1
   169    63    64    1
   170   107   106    2
   171    10     9    1
   172    64    67    1
   173   105   106    1
   174   105   108    1
   175    32    31    2
   176     9     3   am
   177   109   108    1
   178   109   110    1
   179    68    67    1
   180     5     2    1
   181   111   110    1
   182   111   112    2
   183    30    31    1
   184    30    29    1
   185     3     2    1
   186     3     4    2
   187   114   112    1
   188     2     1    1
   189   112   113    1
   190   204   203   ar
   191   205   203   ar
   192   203   202    1
   193   202   199    1
   194   199   198    1
   195   199   200    1
   196   201   200    2
