@<TRIPOS>MOLECULE
tmp/2vwuA00.pdb
 170 158 0 0 0
SMALL
GASTEIGER

@<TRIPOS>ATOM
      1  N          9.8670   14.6410   16.1620 N.3    13  ILE13      -0.1231
      2  CA        10.5080   14.7520   14.8430 C.3    13  ILE13       0.1692
      3  C          9.5890   14.4100   13.6820 C.2    13  ILE13       0.2593
      4  O          9.9940   14.5340   12.5340 O.2    13  ILE13      -0.2718
      5  CB        11.7500   13.8280   14.7280 C.3    13  ILE13       0.0266
      6  CG1       11.3170   12.3580   14.6310 C.3    13  ILE13       0.0019
      7  CG2       12.6890   14.0410   15.9080 C.3    13  ILE13       0.0020
      8  CD1       12.3980   11.4370   14.2660 C.3    13  ILE13       0.0001
      9  N          8.3760   13.9510   13.9670 N.am   14  GLY14      -0.1942
     10  CA         7.4560   13.5590   12.9100 C.3    14  GLY14       0.2014
     11  C          6.0380   13.3430   13.3760 C.2    14  GLY14       0.2638
     12  O          5.7220   13.5140   14.5470 O.2    14  GLY14      -0.2714
     13  N          5.1910   12.9750   12.4250 N.am   15  ALA15      -0.1977
     14  CA         3.8110   12.5900   12.6720 C.3    15  ALA15       0.1597
     15  C          3.5230   11.3070   11.9020 C.2    15  ALA15       0.2287
     16  O          3.8140   11.2110   10.7030 O.2    15  ALA15      -0.2864
     17  CB         2.8700   13.6890   12.2150 C.3    15  ALA15       0.0319
     18  N          6.0320   10.9270   16.1990 N.3    21  VAL21      -0.1245
     19  CA         7.2840   10.1830   16.1240 C.3    21  VAL21       0.1561
     20  C          8.3450   11.0350   16.7720 C.2    21  VAL21       0.2260
     21  O          8.5090   12.2010   16.4020 O.2    21  VAL21      -0.2867
     22  CB         7.6850    9.8450   14.6790 C.3    21  VAL21       0.0252
     23  CG1        8.8600    8.8400   14.6830 C.3    21  VAL21       0.0019
     24  CG2        6.5010    9.2740   13.9350 C.3    21  VAL21       0.0019
     25  N         14.2020    5.8920   17.4800 N.3    37  ALA37      -0.1245
     26  CA        12.9650    6.5520   17.1220 C.3    37  ALA37       0.1562
     27  C         11.8580    5.8960   17.9500 C.2    37  ALA37       0.2260
     28  O         11.8860    4.6860   18.1910 O.2    37  ALA37      -0.2867
     29  CB        12.6790    6.4010   15.6370 C.3    37  ALA37       0.0290
     30  N          7.5490    5.8130   18.3750 N.3    39  LYS39      -0.1245
     31  CA         6.1680    6.1020   17.9940 C.3    39  LYS39       0.1561
     32  C          5.2980    5.9390   19.2270 C.2    39  LYS39       0.2260
     33  O          5.3290    4.8840   19.8640 O.2    39  LYS39      -0.2867
     34  CB         5.6800    5.1190   16.9210 C.3    39  LYS39       0.0271
     35  CG         6.0140    5.5010   15.4950 C.3    39  LYS39       0.0035
     36  CD         5.2220    4.6320   14.4950 C.3    39  LYS39       0.0206
     37  CE         5.6280    4.9140   13.0470 C.3    39  LYS39       0.1093
     38  NZ         4.9430    4.0400   12.0700 N.3    39  LYS39      -0.1314
     39  N          2.3800   -3.4430   13.6420 N.3    52  GLU52      -0.1245
     40  CA         3.6290   -3.0850   12.9500 C.3    52  GLU52       0.1567
     41  C          4.8340   -3.6850   13.6640 C.2    52  GLU52       0.2260
     42  O          5.7090   -4.2420   13.0250 O.2    52  GLU52      -0.2867
     43  CB         3.7770   -1.5670   12.8120 C.3    52  GLU52       0.0388
     44  CG         5.0530   -1.1360   12.0970 C.3    52  GLU52       0.1160
     45  CD         5.0550    0.3280   11.7090 C.2    52  GLU52       0.3649
     46  OE1        4.6940    1.1770   12.5500 O.co2  52  GLU52      -0.2457
     47  OE2        5.4350    0.6300   10.5610 O.co2  52  GLU52      -0.2457
     48  N          7.4790   -6.3860   12.2070 N.3    56  MET56      -0.1245
     49  CA         8.8900   -5.9600   12.2590 C.3    56  MET56       0.1570
     50  C          9.7690   -6.8820   13.0940 C.2    56  MET56       0.2261
     51  O         10.9160   -7.1680   12.7430 O.2    56  MET56      -0.2867
     52  CB         8.9690   -4.5690   12.8650 C.3    56  MET56       0.0387
     53  CG        10.1380   -3.7820   12.4370 C.3    56  MET56       0.0595
     54  SD         9.9670   -2.1100   13.0850 S.3    56  MET56      -0.1393
     55  CE         8.5720   -1.4580   12.2300 C.3    56  MET56       0.0692
     56  N         14.4060   -2.3900    8.9350 N.3    65  ILE65      -0.1245
     57  CA        14.4940   -1.5790   10.1640 C.3    65  ILE65       0.1561
     58  C         14.4970   -2.5180   11.3880 C.2    65  ILE65       0.2260
     59  O         13.7200   -3.4670   11.4410 O.2    65  ILE65      -0.2867
     60  CB        13.3340   -0.5350   10.2270 C.3    65  ILE65       0.0252
     61  CG1       13.5550    0.4720   11.3530 C.3    65  ILE65       0.0019
     62  CG2       12.0120   -1.2010   10.3810 C.3    65  ILE65       0.0019
     63  CD1       12.4610    1.5610   11.3890 C.3    65  ILE65       0.0001
     64  N          6.3980    1.9880   20.3090 N.3    79  ILE79      -0.1245
     65  CA         7.2200    1.1420   19.4510 C.3    79  ILE79       0.1561
     66  C          8.5470    1.8690   19.3020 C.2    79  ILE79       0.2260
     67  O          8.5690    3.0490   18.9350 O.2    79  ILE79      -0.2867
     68  CB         6.5850    0.9520   18.0520 C.3    79  ILE79       0.0252
     69  CG1        5.1780    0.3470   18.1840 C.3    79  ILE79       0.0019
     70  CG2        7.4650    0.0750   17.1630 C.3    79  ILE79       0.0019
     71  CD1        4.4560    0.1730   16.8750 C.3    79  ILE79       0.0001
     72  N         12.3230    1.8200   17.4480 N.3    81  THR81      -0.1203
     73  CA        13.2100    1.3030   16.4220 C.3    81  THR81       0.1994
     74  C         14.5800    1.9840   16.5190 C.2    81  THR81       0.2618
     75  O         14.7120    3.0310   17.1500 O.2    81  THR81      -0.2717
     76  CB        12.6350    1.5520   15.0070 C.3    81  THR81       0.1784
     77  OG1       12.3980    2.9580   14.8310 O.3    81  THR81      -0.2211
     78  CG2       11.3470    0.7610   14.7670 C.3    81  THR81       0.0376
     79  N         15.5860    1.3860   15.8780 N.am   82  GLU82      -0.1965
     80  CA        16.8800    2.0470   15.6640 C.3    82  GLU82       0.1733
     81  C         16.6500    3.3950   14.9830 C.2    82  GLU82       0.2616
     82  O         15.8460    3.4850   14.0510 O.2    82  GLU82      -0.2715
     83  CB        17.8010    1.1860   14.7820 C.3    82  GLU82       0.0429
     84  CG        17.3070    1.0200   13.3560 C.3    82  GLU82       0.1163
     85  CD        18.2240    0.2050   12.4690 C.2    82  GLU82       0.3649
     86  OE1       17.7250   -0.7140   11.7760 O.co2  82  GLU82      -0.2457
     87  OE2       19.4320    0.5040   12.4340 O.co2  82  GLU82      -0.2457
     88  N         17.3530    4.4280   15.4300 N.am   83  PHE83      -0.1960
     89  CA        17.1490    5.7630   14.8980 C.3    83  PHE83       0.1771
     90  C         17.8270    5.9000   13.5430 C.2    83  PHE83       0.2619
     91  O         19.0010    5.6330   13.4220 O.2    83  PHE83      -0.2715
     92  CB        17.7050    6.8080   15.8520 C.3    83  PHE83       0.0574
     93  CG        17.4220    8.2070   15.4360 C.ar   83  PHE83      -0.0200
     94  CD1       16.1180    8.6800   15.3850 C.ar   83  PHE83      -0.0042
     95  CD2       18.4590    9.0670   15.1140 C.ar   83  PHE83      -0.0042
     96  CE1       15.8490    9.9870   14.9940 C.ar   83  PHE83      -0.0003
     97  CE2       18.1990   10.3720   14.7180 C.ar   83  PHE83      -0.0003
     98  CZ        16.9000   10.8380   14.6650 C.ar   83  PHE83      -0.0000
     99  N         17.0850    6.3640   12.5440 N.am   84  MET84      -0.1963
    100  CA        17.6080    6.5250   11.1970 C.3    84  MET84       0.1736
    101  C         17.7460    8.0290   10.9170 C.2    84  MET84       0.2616
    102  O         16.7950    8.7250   10.6240 O.2    84  MET84      -0.2715
    103  CB        16.6890    5.8320   10.2010 C.3    84  MET84       0.0427
    104  CG        16.5410    4.3200   10.4490 C.3    84  MET84       0.0599
    105  SD        18.0130    3.3480   10.1430 S.3    84  MET84      -0.1393
    106  CE        17.9700    3.3530    8.3370 C.3    84  MET84       0.0692
    107  N         18.9690    8.5070   11.0470 N.am   85  GLU85      -0.1963
    108  CA        19.2720    9.9260   11.1850 C.3    85  GLU85       0.1733
    109  C         18.7940   10.7800   10.0110 C.2    85  GLU85       0.2616
    110  O         18.4060   11.9130   10.2020 O.2    85  GLU85      -0.2715
    111  CB        20.7770   10.0840   11.3650 C.3    85  GLU85       0.0429
    112  CG        21.2800    9.5150   12.7060 C.3    85  GLU85       0.1163
    113  CD        21.8430    8.0770   12.6720 C.2    85  GLU85       0.3649
    114  OE1       21.5270    7.2260   11.7570 O.co2  85  GLU85      -0.2457
    115  OE2       22.6290    7.8180   13.6240 O.co2  85  GLU85      -0.2457
    116  N         18.8010   10.2120    8.8100 N.am   86  ASN86      -0.1958
    117  CA        18.3850   10.9220    7.6060 C.3    86  ASN86       0.1819
    118  C         16.9000   10.7650    7.2160 C.2    86  ASN86       0.2622
    119  O         16.4220   11.3970    6.2570 O.2    86  ASN86      -0.2715
    120  CB        19.3390   10.5590    6.4690 C.3    86  ASN86       0.1195
    121  CG        20.6930   11.2120    6.6280 C.2    86  ASN86       0.2630
    122  OD1       20.7780   12.4040    6.9230 O.2    86  ASN86      -0.2716
    123  ND2       21.7590   10.4490    6.4190 N.am   86  ASN86      -0.0877
    124  N         16.1460    9.9780    7.9810 N.am   87  GLY87      -0.1940
    125  CA        14.6990    9.9320    7.7860 C.3    87  GLY87       0.2014
    126  C         14.3290    9.2330    6.4900 C.2    87  GLY87       0.2638
    127  O         15.0640    8.3610    6.0190 O.2    87  GLY87      -0.2714
    128  N         13.2020    9.6240    5.8940 N.am   88  ALA88      -0.1977
    129  CA        12.7040    8.9270    4.7160 C.3    88  ALA88       0.1597
    130  C         13.4870    9.2870    3.4560 C.2    88  ALA88       0.2287
    131  O         13.8870   10.4210    3.2490 O.2    88  ALA88      -0.2864
    132  CB        11.2190    9.1590    4.5100 C.3    88  ALA88       0.0319
    133  N         16.1690   16.8300   -0.6150 N.3    95  LEU95      -0.1245
    134  CA        17.0640   17.7520    0.0780 C.3    95  LEU95       0.1561
    135  C         18.4970   17.7670   -0.5160 C.2    95  LEU95       0.2260
    136  O         19.2100   18.7770   -0.4420 O.2    95  LEU95      -0.2867
    137  CB        17.1010   17.3800    1.5510 C.3    95  LEU95       0.0270
    138  CG        17.6300   18.3470    2.6070 C.3    95  LEU95       0.0019
    139  CD1       16.9560   19.7080    2.5540 C.3    95  LEU95       0.0001
    140  CD2       17.4440   17.7060    3.9570 C.3    95  LEU95       0.0001
    141  N          8.7200    4.8540    2.2450 N.3   133  ASN133     -0.1240
    142  CA         8.7030    3.7780    3.2550 C.3   133  ASN133      0.1653
    143  C         10.0770    3.1580    3.5290 C.2   133  ASN133      0.2266
    144  O         10.1850    2.1230    4.1890 O.2   133  ASN133     -0.2867
    145  CB         7.6390    2.7280    2.8630 C.3   133  ASN133      0.1155
    146  CG         6.2180    3.2860    2.9860 C.2   133  ASN133      0.2627
    147  OD1        5.9740    4.1010    3.8690 O.2   133  ASN133     -0.2716
    148  ND2        5.3050    2.9150    2.0660 N.am  133  ASN133     -0.0877
    149  N         13.9280    4.0720    5.1120 N.3   135  LEU135     -0.1245
    150  CA        14.6090    5.0330    5.9840 C.3   135  LEU135      0.1561
    151  C         16.0950    4.9570    5.7390 C.2   135  LEU135      0.2260
    152  O         16.6100    3.9220    5.2940 O.2   135  LEU135     -0.2867
    153  CB        14.3180    4.7350    7.4530 C.3   135  LEU135      0.0270
    154  CG        12.8690    4.8910    7.8930 C.3   135  LEU135      0.0019
    155  CD1       12.6740    4.4160    9.3090 C.3   135  LEU135      0.0001
    156  CD2       12.4860    6.3450    7.8010 C.3   135  LEU135      0.0001
    157  N         11.1580   -0.0930    5.8530 N.3   145  SER145     -0.1202
    158  CA        10.1560   -0.1650    6.9170 C.3   145  SER145      0.2020
    159  C          8.6990   -0.2050    6.4130 C.2   145  SER145      0.2618
    160  O          8.4160   -0.7350    5.3310 O.2   145  SER145     -0.2717
    161  CB        10.3090    0.9360    7.9380 C.3   145  SER145      0.2103
    162  OG         9.4160    0.6120    9.0250 O.3   145  SER145     -0.2182
    163  N          7.7750    0.3170    7.2210 N.am  146  ASP146     -0.1973
    164  CA         6.3470    0.1930    6.9680 C.3   146  ASP146      0.1709
    165  C          5.8170   -1.2190    6.9860 C.2   146  ASP146      0.2293
    166  O          5.4860   -1.7830    5.9480 O.2   146  ASP146     -0.2864
    167  CB         5.9550    0.8030    5.6320 C.3   146  ASP146      0.1436
    168  CG         4.4390    0.9030    5.4740 C.2   146  ASP146      0.3671
    169  OD1        3.8690    0.3520    4.4850 O.co2 146  ASP146     -0.2456
    170  OD2        3.8260    1.5180    6.3800 O.co2 146  ASP146     -0.2456
@<TRIPOS>BOND
     1   133   134    1
     2   135   136    2
     3   135   134    1
     4   134   137    1
     5   137   138    1
     6   148   146   am
     7   141   142    1
     8   139   138    1
     9   138   140    1
    10   145   146    1
    11   145   142    1
    12   146   147    2
    13   131   130    2
    14   142   143    1
    15   130   129    1
    16   143   144    2
    17   169   168   ar
    18   132   129    1
    19   129   128    1
    20   149   150    1
    21   152   151    2
    22   160   159    2
    23   168   167    1
    24   168   170   ar
    25   167   164    1
    26   151   150    1
    27   157   158    1
    28   128   126   am
    29   166   165    2
    30   150   153    1
    31   127   126    2
    32   119   118    2
    33   159   158    1
    34   159   163   am
    35   123   121   am
    36   120   121    1
    37   120   117    1
    38   126   125    1
    39   121   122    2
    40   158   161    1
    41   164   165    1
    42   164   163    1
    43   118   117    1
    44   118   124   am
    45   153   154    1
    46   117   116    1
    47   125   124    1
    48   156   154    1
    49   154   155    1
    50   161   162    1
    51   106   105    1
    52   116   109   am
    53    56    57    1
    54   109   110    2
    55   109   108    1
    56   105   104    1
    57    57    60    1
    58    57    58    1
    59   103   104    1
    60   103   100    1
    61    60    62    1
    62    60    61    1
    63    47    45   ar
    64   102   101    2
    65    16    15    2
    66   101   107   am
    67   101   100    1
    68   107   108    1
    69   108   111    1
    70   100    99    1
    71    61    63    1
    72   111   112    1
    73    58    59    2
    74    45    44    1
    75    45    46   ar
    76   114   113   ar
    77    86    85   ar
    78    15    14    1
    79    38    37    1
    80    44    43    1
    81    48    49    1
    82    17    14    1
    83    55    54    1
    84    49    52    1
    85    49    50    1
    86    13    14    1
    87    13    11   am
    88    87    85   ar
    89    53    52    1
    90    53    54    1
    91    85    84    1
    92     4     3    2
    93    99    90   am
    94   113   112    1
    95   113   115   ar
    96    51    50    2
    97    43    40    1
    98    10    11    1
    99    10     9    1
   100    40    39    1
   101    40    41    1
   102    42    41    2
   103    37    36    1
   104    84    83    1
   105    11    12    2
   106    91    90    2
   107    90    89    1
   108     3     9   am
   109     3     2    1
   110    24    22    1
   111    82    81    2
   112     8     6    1
   113    36    35    1
   114     6     5    1
   115    98    97   ar
   116    98    96   ar
   117    22    23    1
   118    22    19    1
   119    97    95   ar
   120     5     2    1
   121     5     7    1
   122    78    76    1
   123    83    80    1
   124    77    76    1
   125     2     1    1
   126    89    88    1
   127    89    92    1
   128    81    88   am
   129    81    80    1
   130    96    94   ar
   131    76    73    1
   132    95    93   ar
   133    94    93   ar
   134    93    92    1
   135    35    34    1
   136    29    26    1
   137    80    79    1
   138    79    74   am
   139    19    18    1
   140    19    20    1
   141    21    20    2
   142    73    74    1
   143    73    72    1
   144    74    75    2
   145    71    69    1
   146    34    31    1
   147    26    25    1
   148    26    27    1
   149    70    68    1
   150    27    28    2
   151    31    30    1
   152    31    32    1
   153    68    69    1
   154    68    65    1
   155    67    66    2
   156    32    33    2
   157    66    65    1
   158    65    64    1
