@<TRIPOS>MOLECULE
tmp/2vwvA00.pdb
 145 136 0 0 0
SMALL
GASTEIGER

@<TRIPOS>ATOM
      1  N         11.9090   13.0300   21.7290 N.3    14  GLU14      -0.1245
      2  CA        11.2540   13.7530   20.6340 C.3    14  GLU14       0.1567
      3  C         10.1210   12.9610   19.9450 C.2    14  GLU14       0.2260
      4  O         10.2770   11.7600   19.6660 O.2    14  GLU14      -0.2867
      5  CB        12.3600   14.0800   19.6130 C.3    14  GLU14       0.0388
      6  CG        12.0650   15.1720   18.6090 C.3    14  GLU14       0.1160
      7  CD        13.3320   15.6530   17.9090 C.2    14  GLU14       0.3649
      8  OE1       13.7690   15.0020   16.9340 O.co2  14  GLU14      -0.2457
      9  OE2       13.8970   16.6920   18.3390 O.co2  14  GLU14      -0.2457
     10  N          8.6950   12.4780   16.4450 N.3    16  ILE16      -0.1231
     11  CA         9.2470   12.6890   15.1010 C.3    16  ILE16       0.1692
     12  C          8.2460   12.5190   13.9370 C.2    16  ILE16       0.2593
     13  O          8.5950   12.7310   12.7750 O.2    16  ILE16      -0.2718
     14  CB        10.4840   11.7620   14.8270 C.3    16  ILE16       0.0266
     15  CG1       10.0970   10.2870   14.8310 C.3    16  ILE16       0.0019
     16  CG2       11.5720   12.0200   15.8420 C.3    16  ILE16       0.0020
     17  CD1       11.2290    9.3170   14.4060 C.3    16  ILE16       0.0001
     18  N          7.0230   12.0930   14.2290 N.am   17  GLY17      -0.1942
     19  CA         6.1010   11.8120   13.1710 C.3    17  GLY17       0.2014
     20  C          4.7140   11.5050   13.6610 C.2    17  GLY17       0.2639
     21  O          4.4560   11.4420   14.8660 O.2    17  GLY17      -0.2714
     22  N          3.8250   11.3170   12.6950 N.am   18  ALA18      -0.1963
     23  CA         2.4280   11.0640   12.9440 C.3    18  ALA18       0.1728
     24  C          2.0680    9.7480   12.2640 C.2    18  ALA18       0.2616
     25  O          2.2660    9.5940   11.0570 O.2    18  ALA18      -0.2715
     26  CB         1.5990   12.2110   12.3790 C.3    18  ALA18       0.0334
     27  N          1.5510    8.8000   13.0370 N.am   19  GLY19      -0.1955
     28  CA         1.1970    7.4830   12.5070 C.3    19  GLY19       0.1869
     29  C         -0.2960    7.2590   12.2680 C.2    19  GLY19       0.2309
     30  O         -1.1460    8.0560   12.6750 O.2    19  GLY19      -0.2863
     31  N          4.6260    8.7680   16.5970 N.3    24  VAL24      -0.1245
     32  CA         5.8970    8.0870   16.5060 C.3    24  VAL24       0.1561
     33  C          6.9960    8.9570   17.1210 C.2    24  VAL24       0.2260
     34  O          7.1420   10.1260   16.7640 O.2    24  VAL24      -0.2867
     35  CB         6.2420    7.7800   15.0590 C.3    24  VAL24       0.0252
     36  CG1        7.4930    6.9380   14.9990 C.3    24  VAL24       0.0019
     37  CG2        5.0390    7.0590   14.4030 C.3    24  VAL24       0.0019
     38  N         13.1010    4.0360   17.4380 N.3    40  ALA40      -0.1245
     39  CA        11.8500    4.6830   17.0710 C.3    40  ALA40       0.1562
     40  C         10.7350    3.9320   17.7730 C.2    40  ALA40       0.2260
     41  O         10.7500    2.7030   17.8200 O.2    40  ALA40      -0.2867
     42  CB        11.6240    4.6290   15.5720 C.3    40  ALA40       0.0290
     43  N          6.5670    3.5770   18.0520 N.3    42  LYS42      -0.1245
     44  CA         5.1760    3.8470   17.6680 C.3    42  LYS42       0.1561
     45  C          4.3130    3.5240   18.8750 C.2    42  LYS42       0.2260
     46  O          4.5270    2.5060   19.5450 O.2    42  LYS42      -0.2867
     47  CB         4.7230    2.9740   16.5110 C.3    42  LYS42       0.0271
     48  CG         5.4050    3.2290   15.1870 C.3    42  LYS42       0.0035
     49  CD         4.8650    2.2490   14.1520 C.3    42  LYS42       0.0206
     50  CE         5.1320    2.7160   12.7350 C.3    42  LYS42       0.1093
     51  NZ         4.5580    1.7410   11.7020 N.3    42  LYS42      -0.1314
     52  N         14.1860   -3.8250    8.5980 N.3    68  ILE68      -0.1245
     53  CA        14.1860   -3.0850    9.8650 C.3    68  ILE68       0.1561
     54  C         14.0260   -4.0940   11.0070 C.2    68  ILE68       0.2260
     55  O         13.2350   -5.0360   10.8780 O.2    68  ILE68      -0.2867
     56  CB        13.0890   -1.9780    9.8660 C.3    68  ILE68       0.0252
     57  CG1       13.2400   -1.0520   11.0760 C.3    68  ILE68       0.0019
     58  CG2       11.6840   -2.5540    9.7860 C.3    68  ILE68       0.0019
     59  CD1       14.2500    0.0540   10.7580 C.3    68  ILE68       0.0001
     60  N         11.4040   -0.0870   17.1080 N.3    84  THR84      -0.1203
     61  CA        12.3370   -0.5050   16.0520 C.3    84  THR84       0.1994
     62  C         13.7260    0.1920   16.1560 C.2    84  THR84       0.2618
     63  O         13.8400    1.3050   16.6510 O.2    84  THR84      -0.2717
     64  CB        11.7630   -0.1570   14.6880 C.3    84  THR84       0.1784
     65  OG1       11.3010    1.1980   14.7020 O.3    84  THR84      -0.2211
     66  CG2       10.5880   -1.1000   14.3050 C.3    84  THR84       0.0376
     67  N         14.7530   -0.4490   15.6160 N.am   85  GLU85      -0.1965
     68  CA        16.1000    0.1410   15.5810 C.3    85  GLU85       0.1733
     69  C         15.9960    1.5220   14.9430 C.2    85  GLU85       0.2616
     70  O         15.3220    1.6650   13.9150 O.2    85  GLU85      -0.2715
     71  CB        17.0500   -0.7500   14.7730 C.3    85  GLU85       0.0429
     72  CG        16.8510   -0.6980   13.2360 C.3    85  GLU85       0.1163
     73  CD        17.7800   -1.6650   12.5060 C.2    85  GLU85       0.3649
     74  OE1       17.2990   -2.4850   11.6790 O.co2  85  GLU85      -0.2457
     75  OE2       19.0000   -1.6070   12.7940 O.co2  85  GLU85      -0.2457
     76  N         16.6530    2.5290   15.5150 N.am   86  PHE86      -0.1960
     77  CA        16.4820    3.8870   15.0290 C.3    86  PHE86       0.1771
     78  C         17.3140    4.1350   13.7760 C.2    86  PHE86       0.2619
     79  O         18.5020    3.8910   13.7830 O.2    86  PHE86      -0.2715
     80  CB        16.8700    4.9020   16.0680 C.3    86  PHE86       0.0574
     81  CG        16.5990    6.3290   15.6410 C.ar   86  PHE86      -0.0200
     82  CD1       15.3010    6.7790   15.4510 C.ar   86  PHE86      -0.0042
     83  CD2       17.6430    7.2150   15.4250 C.ar   86  PHE86      -0.0042
     84  CE1       15.0570    8.1060   15.0810 C.ar   86  PHE86      -0.0003
     85  CE2       17.3870    8.5310   15.0320 C.ar   86  PHE86      -0.0003
     86  CZ        16.1030    8.9600   14.8650 C.ar   86  PHE86      -0.0000
     87  N         16.6790    4.6590   12.7270 N.am   87  MET87      -0.1963
     88  CA        17.3490    5.0020   11.4760 C.3    87  MET87       0.1736
     89  C         17.4540    6.5210   11.3420 C.2    87  MET87       0.2616
     90  O         16.4670    7.1800   11.1000 O.2    87  MET87      -0.2715
     91  CB        16.5970    4.4000   10.2970 C.3    87  MET87       0.0427
     92  CG        16.3720    2.8890   10.3850 C.3    87  MET87       0.0599
     93  SD        17.9010    1.9840   10.3020 S.3    87  MET87      -0.1393
     94  CE        17.9800    2.0950    8.5220 C.3    87  MET87       0.0692
     95  N         18.6740    7.0600   11.4350 N.am   88  GLU88      -0.1963
     96  CA        18.8920    8.4980   11.6090 C.3    88  GLU88       0.1733
     97  C         18.4880    9.3540   10.3990 C.2    88  GLU88       0.2616
     98  O         18.1700   10.5130   10.5760 O.2    88  GLU88      -0.2715
     99  CB        20.3660    8.7750   11.9580 C.3    88  GLU88       0.0429
    100  CG        20.8770    8.0450   13.2530 C.3    88  GLU88       0.1163
    101  CD        21.4890    6.6320   12.9950 C.2    88  GLU88       0.3649
    102  OE1       21.1610    5.9400   11.9660 O.co2  88  GLU88      -0.2457
    103  OE2       22.3230    6.2260   13.8470 O.co2  88  GLU88      -0.2457
    104  N         18.5170    8.7950    9.1840 N.am   89  ASN89      -0.1958
    105  CA        18.2790    9.5670    7.9370 C.3    89  ASN89       0.1819
    106  C         16.8520    9.4470    7.3710 C.2    89  ASN89       0.2622
    107  O         16.5380    9.9570    6.2910 O.2    89  ASN89      -0.2715
    108  CB        19.3670    9.1890    6.9120 C.3    89  ASN89       0.1195
    109  CG        20.6850    9.9020    7.1880 C.2    89  ASN89       0.2630
    110  OD1       20.6670   11.0580    7.5670 O.2    89  ASN89      -0.2716
    111  ND2       21.8290    9.2360    6.9630 N.am   89  ASN89      -0.0877
    112  N         15.9990    8.7770    8.1190 N.am   90  GLY90      -0.1940
    113  CA        14.5680    8.7030    7.8280 C.3    90  GLY90       0.2014
    114  C         14.2840    7.9880    6.5390 C.2    90  GLY90       0.2638
    115  O         14.9670    7.0550    6.1960 O.2    90  GLY90      -0.2714
    116  N         13.2550    8.4520    5.8470 N.am   91  ALA91      -0.1977
    117  CA        12.6700    7.7760    4.7270 C.3    91  ALA91       0.1597
    118  C         13.5450    8.0770    3.5190 C.2    91  ALA91       0.2287
    119  O         13.9430    9.2230    3.3200 O.2    91  ALA91      -0.2864
    120  CB        11.2810    8.3100    4.4880 C.3    91  ALA91       0.0319
    121  N          9.4070    5.5370   -0.0650 N.3   135  ARG135     -0.1245
    122  CA         8.8480    6.0820    1.1890 C.3   135  ARG135      0.1563
    123  C          8.7350    5.1070    2.3380 C.2   135  ARG135      0.2260
    124  O          8.5790    5.5140    3.5050 O.2   135  ARG135     -0.2867
    125  CB         7.4910    6.7010    0.9410 C.3   135  ARG135      0.0307
    126  CG         6.4400    5.6960    0.4520 C.3   135  ARG135      0.0489
    127  CD         5.0620    6.3180    0.2520 C.3   135  ARG135      0.2205
    128  NE         4.1480    5.2390   -0.0940 N.pl3 135  ARG135     -0.0865
    129  CZ         4.0680    4.6870   -1.3010 C.cat 135  ARG135      0.5346
    130  NH1        4.8270    5.1140   -2.2760 N.pl3 135  ARG135      0.1354
    131  NH2        3.2400    3.6880   -1.5480 N.pl3 135  ARG135      0.1354
    132  N         13.9330    2.8730    4.9280 N.3   138  LEU138     -0.1245
    133  CA        14.5700    3.7660    5.8950 C.3   138  LEU138      0.1561
    134  C         16.0700    3.6950    5.7070 C.2   138  LEU138      0.2260
    135  O         16.5890    2.6700    5.2940 O.2   138  LEU138     -0.2867
    136  CB        14.2120    3.3710    7.3320 C.3   138  LEU138      0.0270
    137  CG        12.7700    3.6950    7.7680 C.3   138  LEU138      0.0019
    138  CD1       12.4540    3.0290    9.0860 C.3   138  LEU138      0.0001
    139  CD2       12.6130    5.2180    7.8960 C.3   138  LEU138      0.0001
    140  N         10.9810   -1.4190    5.3970 N.3   148  SER148     -0.1217
    141  CA        10.1120   -1.2070    6.5270 C.3   148  SER148      0.1889
    142  C          8.6460   -1.3330    6.0850 C.2   148  SER148      0.2288
    143  O          8.3590   -1.7440    4.9570 O.2   148  SER148     -0.2866
    144  CB        10.3930    0.1750    7.1120 C.3   148  SER148      0.2089
    145  OG         9.5850    0.4040    8.2440 O.3   148  SER148     -0.2183
@<TRIPOS>BOND
     1   130   129    1
     2   131   129    1
     3   129   128    2
     4   128   127    1
     5   121   122    1
     6   127   126    1
     7   126   125    1
     8   125   122    1
     9   122   123    1
    10   123   124    2
    11   119   118    2
    12   118   117    1
    13   120   117    1
    14   117   116    1
    15   132   133    1
    16   143   142    2
    17   135   134    2
    18   140   141    1
    19   134   133    1
    20   116   114   am
    21   133   136    1
    22   142   141    1
    23   115   114    2
    24   107   106    2
    25   141   144    1
    26   114   113    1
    27   108   109    1
    28   108   105    1
    29   111   109   am
    30   144   145    1
    31   109   110    2
    32   136   137    1
    33   106   105    1
    34   106   112   am
    35   137   139    1
    36   137   138    1
    37   113   112    1
    38   105   104    1
    39    94    93    1
    40    52    53    1
    41   104    97   am
    42    58    56    1
    43    53    56    1
    44    53    54    1
    45    56    57    1
    46    91    92    1
    47    91    88    1
    48    93    92    1
    49    97    98    2
    50    97    96    1
    51    59    57    1
    52    55    54    2
    53    25    24    2
    54    90    89    2
    55    89    95   am
    56    89    88    1
    57    95    96    1
    58    88    87    1
    59    96    99    1
    60    74    73   ar
    61    51    50    1
    62    99   100    1
    63   102   101   ar
    64    24    23    1
    65    24    27   am
    66    29    28    1
    67    29    30    2
    68    26    23    1
    69    73    75   ar
    70    73    72    1
    71    28    27    1
    72    22    23    1
    73    22    20   am
    74    87    78   am
    75    50    49    1
    76    13    12    2
    77   101   100    1
    78   101   103   ar
    79    19    20    1
    80    19    18    1
    81    72    71    1
    82    20    21    2
    83    78    79    2
    84    78    77    1
    85    70    69    2
    86    12    18   am
    87    12    11    1
    88    49    48    1
    89    66    64    1
    90    37    35    1
    91    17    15    1
    92    64    65    1
    93    64    61    1
    94    71    68    1
    95    14    15    1
    96    14    11    1
    97    14    16    1
    98    86    85   ar
    99    86    84   ar
   100    69    76   am
   101    69    68    1
   102    36    35    1
   103    77    76    1
   104    77    80    1
   105    85    83   ar
   106    35    32    1
   107    84    82   ar
   108    11    10    1
   109    48    47    1
   110    83    81   ar
   111    82    81   ar
   112    42    39    1
   113    68    67    1
   114    67    62   am
   115    81    80    1
   116    61    62    1
   117    61    60    1
   118    62    63    2
   119    32    31    1
   120    32    33    1
   121    47    44    1
   122    34    33    2
   123     8     7   ar
   124    39    38    1
   125    39    40    1
   126    44    43    1
   127    44    45    1
   128    40    41    2
   129     7     9   ar
   130     7     6    1
   131     6     5    1
   132    45    46    2
   133     5     2    1
   134     4     3    2
   135     3     2    1
   136     2     1    1
