@<TRIPOS>MOLECULE
tmp/2vwwA00.pdb
 160 149 0 0 0
SMALL
GASTEIGER

@<TRIPOS>ATOM
      1  N          9.7980   13.2050   16.0400 N.3    13  ILE13      -0.1231
      2  CA        10.3890   13.4600   14.7140 C.3    13  ILE13       0.1692
      3  C          9.3820   13.3060   13.5850 C.2    13  ILE13       0.2592
      4  O          9.5810   13.8620   12.5040 O.2    13  ILE13      -0.2718
      5  CB        11.6430   12.5520   14.4450 C.3    13  ILE13       0.0266
      6  CG1       11.2810   11.0660   14.3870 C.3    13  ILE13       0.0019
      7  CG2       12.7080   12.7750   15.5290 C.3    13  ILE13       0.0020
      8  CD1       12.4610   10.1650   14.0450 C.3    13  ILE13       0.0001
      9  N          8.3080   12.5560   13.8180 N.am   14  GLY14      -0.1957
     10  CA         7.3250   12.3190   12.7820 C.3    14  GLY14       0.1869
     11  C          5.9570   11.9800   13.3110 C.2    14  GLY14       0.2309
     12  O          5.7380   11.9450   14.5090 O.2    14  GLY14      -0.2863
     13  N          5.9930    9.3130   15.9980 N.3    21  VAL21      -0.1245
     14  CA         7.2590    8.5950   15.8600 C.3    21  VAL21       0.1561
     15  C          8.3200    9.4890   16.4830 C.2    21  VAL21       0.2260
     16  O          8.3830   10.6780   16.1710 O.2    21  VAL21      -0.2867
     17  CB         7.6190    8.3170   14.3910 C.3    21  VAL21       0.0252
     18  CG1        8.7620    7.2860   14.3090 C.3    21  VAL21       0.0019
     19  CG2        6.4010    7.8470   13.6330 C.3    21  VAL21       0.0019
     20  N         14.2290    4.3180   17.4740 N.3    37  ALA37      -0.1245
     21  CA        12.9780    4.9240   17.0620 C.3    37  ALA37       0.1562
     22  C         11.8710    4.3200   17.9170 C.2    37  ALA37       0.2260
     23  O         11.8750    3.1070   18.2250 O.2    37  ALA37      -0.2867
     24  CB        12.6820    4.7150   15.5500 C.3    37  ALA37       0.0290
     25  N          7.5920    4.3360   18.2780 N.3    39  LYS39      -0.1245
     26  CA         6.2230    4.6800   17.9120 C.3    39  LYS39       0.1561
     27  C          5.3980    4.5840   19.1730 C.2    39  LYS39       0.2260
     28  O          5.5140    3.5950   19.9030 O.2    39  LYS39      -0.2867
     29  CB         5.6570    3.7150   16.8940 C.3    39  LYS39       0.0271
     30  CG         5.9060    4.0820   15.4820 C.3    39  LYS39       0.0035
     31  CD         5.1700    3.1060   14.5500 C.3    39  LYS39       0.0206
     32  CE         5.4200    3.4560   13.0750 C.3    39  LYS39       0.1093
     33  NZ         4.5370    2.6710   12.1340 N.3    39  LYS39      -0.1314
     34  N          2.4290   -4.9470   13.8120 N.3    52  GLU52      -0.1245
     35  CA         3.6330   -4.5500   13.0650 C.3    52  GLU52       0.1567
     36  C          4.8720   -5.0770   13.7620 C.2    52  GLU52       0.2260
     37  O          5.8090   -5.5260   13.1280 O.2    52  GLU52      -0.2867
     38  CB         3.7330   -3.0260   12.9170 C.3    52  GLU52       0.0388
     39  CG         5.0560   -2.5910   12.2780 C.3    52  GLU52       0.1160
     40  CD         5.0350   -1.1780   11.7510 C.2    52  GLU52       0.3649
     41  OE1        4.5450   -0.2930   12.4460 O.co2  52  GLU52      -0.2457
     42  OE2        5.5270   -0.9490   10.6250 O.co2  52  GLU52      -0.2457
     43  N          7.4510   -7.7170   12.2280 N.3    56  MET56      -0.1245
     44  CA         8.8390   -7.2250   12.2570 C.3    56  MET56       0.1570
     45  C          9.7340   -8.1450   13.0870 C.2    56  MET56       0.2261
     46  O         10.9080   -8.3800   12.7600 O.2    56  MET56      -0.2867
     47  CB         8.8290   -5.8070   12.8500 C.3    56  MET56       0.0387
     48  CG        10.0000   -4.9190   12.5650 C.3    56  MET56       0.0595
     49  SD         9.5000   -3.1740   12.6790 S.3    56  MET56      -0.1393
     50  CE         8.3720   -3.1540   14.0770 C.3    56  MET56       0.0692
     51  N         14.3370   -3.6200    8.9480 N.3    65  ILE65      -0.1245
     52  CA        14.3940   -2.8560   10.2100 C.3    65  ILE65       0.1561
     53  C         14.3680   -3.8120   11.4060 C.2    65  ILE65       0.2260
     54  O         13.5140   -4.6830   11.4630 O.2    65  ILE65      -0.2867
     55  CB        13.2160   -1.8570   10.3040 C.3    65  ILE65       0.0252
     56  CG1       13.2670   -1.0800   11.5940 C.3    65  ILE65       0.0019
     57  CG2       11.8590   -2.5610   10.1650 C.3    65  ILE65       0.0019
     58  CD1       12.4770    0.1600   11.4970 C.3    65  ILE65       0.0001
     59  N          6.3500    0.7000   20.3210 N.3    79  ILE79      -0.1245
     60  CA         7.1660   -0.1870   19.5120 C.3    79  ILE79       0.1561
     61  C          8.5100    0.5070   19.3680 C.2    79  ILE79       0.2260
     62  O          8.5680    1.6830   18.9670 O.2    79  ILE79      -0.2867
     63  CB         6.5830   -0.3980   18.0880 C.3    79  ILE79       0.0252
     64  CG1        5.2080   -1.0630   18.1520 C.3    79  ILE79       0.0019
     65  CG2        7.5270   -1.2590   17.2460 C.3    79  ILE79       0.0019
     66  CD1        4.5650   -1.2570   16.7940 C.3    79  ILE79       0.0001
     67  N         12.4340    0.2280   17.6910 N.3    81  THR81      -0.1203
     68  CA        13.3020   -0.3760   16.7010 C.3    81  THR81       0.1994
     69  C         14.6230    0.3510   16.7250 C.2    81  THR81       0.2618
     70  O         14.7750    1.3590   17.4210 O.2    81  THR81      -0.2717
     71  CB        12.7210   -0.2680   15.2480 C.3    81  THR81       0.1784
     72  OG1       12.6250    1.1100   14.8600 O.3    81  THR81      -0.2211
     73  CG2       11.3650   -0.9370   15.1560 C.3    81  THR81       0.0376
     74  N         15.5930   -0.1730   15.9830 N.am   82  GLU82      -0.1965
     75  CA        16.8150    0.5770   15.7230 C.3    82  GLU82       0.1733
     76  C         16.4340    1.9250   15.1210 C.2    82  GLU82       0.2616
     77  O         15.3940    2.0450   14.4620 O.2    82  GLU82      -0.2715
     78  CB        17.7370   -0.1840   14.7560 C.3    82  GLU82       0.0429
     79  CG        17.2000   -0.2910   13.3920 C.3    82  GLU82       0.1163
     80  CD        18.0640   -1.0820   12.4350 C.2    82  GLU82       0.3649
     81  OE1       17.5310   -1.9960   11.7980 O.co2  82  GLU82      -0.2457
     82  OE2       19.2500   -0.7850   12.3130 O.co2  82  GLU82      -0.2457
     83  N         17.2800    2.9240   15.3310 N.am   83  PHE83      -0.1960
     84  CA        17.0480    4.2550   14.7970 C.3    83  PHE83       0.1771
     85  C         17.7710    4.4330   13.4590 C.2    83  PHE83       0.2619
     86  O         18.9770    4.1820   13.3750 O.2    83  PHE83      -0.2715
     87  CB        17.5120    5.3200   15.7630 C.3    83  PHE83       0.0574
     88  CG        17.1590    6.6880   15.3270 C.ar   83  PHE83      -0.0200
     89  CD1       15.8270    7.0340   15.1100 C.ar   83  PHE83      -0.0042
     90  CD2       18.1400    7.6320   15.0980 C.ar   83  PHE83      -0.0042
     91  CE1       15.4900    8.3110   14.6700 C.ar   83  PHE83      -0.0003
     92  CE2       17.8010    8.9170   14.6730 C.ar   83  PHE83      -0.0003
     93  CZ        16.4810    9.2510   14.4590 C.ar   83  PHE83      -0.0000
     94  N         17.0170    4.8520   12.4470 N.am   84  MET84      -0.1963
     95  CA        17.5470    5.1210   11.1060 C.3    84  MET84       0.1736
     96  C         17.6710    6.6270   10.9440 C.2    84  MET84       0.2616
     97  O         16.6680    7.3390   10.7600 O.2    84  MET84      -0.2715
     98  CB        16.6330    4.5140   10.0340 C.3    84  MET84       0.0427
     99  CG        16.4600    2.9720   10.2090 C.3    84  MET84       0.0599
    100  SD        17.9250    1.9790   10.0410 S.3    84  MET84      -0.1393
    101  CE        18.0450    1.9070    8.2290 C.3    84  MET84       0.0692
    102  N         18.9190    7.0830   11.0160 N.am   85  GLU85      -0.1963
    103  CA        19.2770    8.4950   11.1700 C.3    85  GLU85       0.1733
    104  C         18.8730    9.3690    9.9900 C.2    85  GLU85       0.2616
    105  O         18.6020   10.5450   10.1720 O.2    85  GLU85      -0.2715
    106  CB        20.7970    8.6400   11.3860 C.3    85  GLU85       0.0429
    107  CG        21.3110    8.0210   12.6850 C.3    85  GLU85       0.1163
    108  CD        21.8600    6.5920   12.5250 C.2    85  GLU85       0.3649
    109  OE1       21.6680    5.9110   11.4640 O.co2  85  GLU85      -0.2457
    110  OE2       22.5140    6.1650   13.4850 O.co2  85  GLU85      -0.2457
    111  N         18.8300    8.7920    8.7890 N.am   86  ASN86      -0.1958
    112  CA        18.5330    9.5540    7.6020 C.3    86  ASN86       0.1819
    113  C         17.0760    9.4300    7.1360 C.2    86  ASN86       0.2622
    114  O         16.7050    9.9850    6.0930 O.2    86  ASN86      -0.2715
    115  CB        19.5490    9.1880    6.4890 C.3    86  ASN86       0.1195
    116  CG        20.8920    9.8810    6.6880 C.2    86  ASN86       0.2630
    117  OD1       20.9170   11.0260    7.0830 O.2    86  ASN86      -0.2716
    118  ND2       21.9990    9.1860    6.4220 N.am   86  ASN86      -0.0877
    119  N         16.2310    8.7300    7.9050 N.am   87  GLY87      -0.1940
    120  CA        14.7810    8.6860    7.6010 C.3    87  GLY87       0.2014
    121  C         14.3950    7.9510    6.3150 C.2    87  GLY87       0.2638
    122  O         15.1260    7.0610    5.8610 O.2    87  GLY87      -0.2714
    123  N         13.2510    8.3410    5.7300 N.am   88  ALA88      -0.1977
    124  CA        12.7040    7.7010    4.5250 C.3    88  ALA88       0.1597
    125  C         13.5450    8.0370    3.2930 C.2    88  ALA88       0.2287
    126  O         13.9800    9.1880    3.1100 O.2    88  ALA88      -0.2864
    127  CB        11.2530    8.1290    4.2850 C.3    88  ALA88       0.0319
    128  N          9.2690    5.3890    0.0130 N.3   132  ARG132     -0.1245
    129  CA         8.7790    5.9060    1.2910 C.3   132  ARG132      0.1563
    130  C          8.8500    4.8780    2.4310 C.2   132  ARG132      0.2260
    131  O          8.8860    5.2530    3.5870 O.2   132  ARG132     -0.2867
    132  CB         7.3430    6.4430    1.1590 C.3   132  ARG132      0.0307
    133  CG         6.2870    5.3500    0.9170 C.3   132  ARG132      0.0489
    134  CD         4.8360    5.8600    0.9860 C.3   132  ARG132      0.2205
    135  NE         3.9210    4.8010    0.5330 N.pl3 132  ARG132     -0.0865
    136  CZ         3.7170    4.4890   -0.7480 C.cat 132  ARG132      0.5346
    137  NH1        4.3180    5.1730   -1.7030 N.pl3 132  ARG132      0.1354
    138  NH2        2.8990    3.5050   -1.0890 N.pl3 132  ARG132      0.1354
    139  N         13.9880    2.8660    4.8810 N.3   135  LEU135     -0.1245
    140  CA        14.6750    3.7550    5.8080 C.3   135  LEU135      0.1561
    141  C         16.1810    3.6910    5.6020 C.2   135  LEU135      0.2260
    142  O         16.7170    2.6640    5.2220 O.2   135  LEU135     -0.2867
    143  CB        14.3390    3.3930    7.2560 C.3   135  LEU135      0.0270
    144  CG        12.8750    3.6020    7.6260 C.3   135  LEU135      0.0019
    145  CD1       12.5740    3.1030    9.0560 C.3   135  LEU135      0.0001
    146  CD2       12.5180    5.0820    7.4790 C.3   135  LEU135      0.0001
    147  N         11.1030   -1.4480    5.7100 N.3   145  SER145     -0.1202
    148  CA        10.1920   -1.3550    6.8270 C.3   145  SER145      0.2020
    149  C          8.7190   -1.5130    6.3580 C.2   145  SER145      0.2618
    150  O          8.4340   -1.7780    5.1770 O.2   145  SER145     -0.2717
    151  CB        10.3830   -0.0260    7.5360 C.3   145  SER145      0.2103
    152  OG         9.8760    1.0720    6.7540 O.3   145  SER145     -0.2182
    153  N          7.7990   -1.3430    7.3000 N.am  146  ASP146     -0.1973
    154  CA         6.3510   -1.3620    7.0620 C.3   146  ASP146      0.1709
    155  C          5.8240   -2.7760    6.9400 C.2   146  ASP146      0.2293
    156  O          5.6700   -3.2840    5.8470 O.2   146  ASP146     -0.2864
    157  CB         5.9520   -0.5750    5.8270 C.3   146  ASP146      0.1436
    158  CG         4.4420   -0.2740    5.7860 C.2   146  ASP146      0.3671
    159  OD1        3.8800   -0.1600    4.6900 O.co2 146  ASP146     -0.2456
    160  OD2        3.8140   -0.1840    6.8700 O.co2 146  ASP146     -0.2456
@<TRIPOS>BOND
     1   137   136    1
     2   138   136    1
     3   136   135    2
     4   128   129    1
     5   135   134    1
     6   133   134    1
     7   133   132    1
     8   132   129    1
     9   129   130    1
    10   130   131    2
    11   126   125    2
    12   125   124    1
    13   127   124    1
    14   124   123    1
    15   159   158   ar
    16   139   140    1
    17   150   149    2
    18   142   141    2
    19   141   140    1
    20   147   148    1
    21   123   121   am
    22   158   157    1
    23   158   160   ar
    24   140   143    1
    25   157   154    1
    26   156   155    2
    27   122   121    2
    28   114   113    2
    29   121   120    1
    30   149   148    1
    31   149   153   am
    32   118   116   am
    33   115   116    1
    34   115   112    1
    35   116   117    2
    36   152   151    1
    37   148   151    1
    38   155   154    1
    39   154   153    1
    40   113   112    1
    41   113   119   am
    42   143   144    1
    43   146   144    1
    44   120   119    1
    45   112   111    1
    46   144   145    1
    47   101   100    1
    48   111   104   am
    49    51    52    1
    50   104   105    2
    51   104   103    1
    52    98    99    1
    53    98    95    1
    54   100    99    1
    55    57    55    1
    56    52    55    1
    57    52    53    1
    58    55    56    1
    59    42    40   ar
    60    97    96    2
    61    96   102   am
    62    96    95    1
    63   102   103    1
    64    95    94    1
    65   103   106    1
    66   106   107    1
    67    53    54    2
    68   109   108   ar
    69    58    56    1
    70    40    39    1
    71    40    41   ar
    72    81    80   ar
    73    33    32    1
    74    43    44    1
    75    44    47    1
    76    44    45    1
    77    39    38    1
    78    82    80   ar
    79    80    79    1
    80    94    85   am
    81     4     3    2
    82   108   107    1
    83   108   110   ar
    84    48    49    1
    85    48    47    1
    86    49    50    1
    87    46    45    2
    88    10    11    1
    89    10     9    1
    90    38    35    1
    91    35    36    1
    92    35    34    1
    93    32    31    1
    94    37    36    2
    95    11    12    2
    96    86    85    2
    97    79    78    1
    98    85    84    1
    99     3     9   am
   100     3     2    1
   101    19    17    1
   102     8     6    1
   103    18    17    1
   104     6     5    1
   105    17    14    1
   106     5     2    1
   107     5     7    1
   108    93    91   ar
   109    93    92   ar
   110    77    76    2
   111    31    30    1
   112    91    89   ar
   113    92    90   ar
   114     2     1    1
   115    78    75    1
   116    84    83    1
   117    84    87    1
   118    72    71    1
   119    90    88   ar
   120    89    88   ar
   121    76    83   am
   122    76    75    1
   123    73    71    1
   124    71    68    1
   125    88    87    1
   126    30    29    1
   127    24    21    1
   128    75    74    1
   129    14    13    1
   130    14    15    1
   131    74    69   am
   132    16    15    2
   133    68    69    1
   134    68    67    1
   135    69    70    2
   136    66    64    1
   137    29    26    1
   138    21    20    1
   139    21    22    1
   140    65    63    1
   141    26    25    1
   142    26    27    1
   143    22    23    2
   144    63    64    1
   145    63    60    1
   146    62    61    2
   147    27    28    2
   148    61    60    1
   149    60    59    1
