@<TRIPOS>MOLECULE
tmp/2vwyA00.pdb
 139 128 0 0 0
SMALL
GASTEIGER

@<TRIPOS>ATOM
      1  N          9.8940   13.3390   15.7790 N.3    14  ILE14      -0.1245
      2  CA        10.4920   13.5080   14.4510 C.3    14  ILE14       0.1561
      3  C          9.5610   13.1520   13.2890 C.2    14  ILE14       0.2260
      4  O          9.9220   13.3460   12.1260 O.2    14  ILE14      -0.2867
      5  CB        11.7810   12.6550   14.2870 C.3    14  ILE14       0.0252
      6  CG1       11.4660   11.1750   14.5110 C.3    14  ILE14       0.0019
      7  CG2       12.8800   13.1540   15.2230 C.3    14  ILE14       0.0019
      8  CD1       12.6120   10.2700   14.2870 C.3    14  ILE14       0.0001
      9  N          5.9800    9.5380   15.8250 N.3    22  VAL22      -0.1245
     10  CA         7.2540    8.8420   15.7800 C.3    22  VAL22       0.1561
     11  C          8.3020    9.7540   16.4110 C.2    22  VAL22       0.2260
     12  O          8.4220   10.9150   16.0300 O.2    22  VAL22      -0.2867
     13  CB         7.6620    8.5000   14.3490 C.3    22  VAL22       0.0252
     14  CG1        9.0120    7.7900   14.3230 C.3    22  VAL22       0.0019
     15  CG2        6.5620    7.6390   13.6730 C.3    22  VAL22       0.0019
     16  N         14.1500    4.6130   17.4330 N.3    38  ALA38      -0.1231
     17  CA        12.8940    5.2410   17.0580 C.3    38  ALA38       0.1694
     18  C         11.7930    4.5950   17.8770 C.2    38  ALA38       0.2592
     19  O         11.8200    3.3760   18.1440 O.2    38  ALA38      -0.2718
     20  CB        12.5780    5.0540   15.6040 C.3    38  ALA38       0.0304
     21  N         10.8180    5.4210   18.2380 N.am   39  ILE39      -0.1966
     22  CA         9.7010    5.0380   19.0970 C.3    39  ILE39       0.1727
     23  C          8.3890    5.4810   18.4430 C.2    39  ILE39       0.2616
     24  O          8.2290    6.6680   18.1810 O.2    39  ILE39      -0.2715
     25  CB         9.8220    5.7070   20.4850 C.3    39  ILE39       0.0290
     26  CG1       11.1660    5.3640   21.1170 C.3    39  ILE39       0.0022
     27  CG2        8.6600    5.2860   21.3900 C.3    39  ILE39       0.0023
     28  CD1       11.5390    6.1590   22.3160 C.3    39  ILE39       0.0001
     29  N          7.5060    4.5280   18.1310 N.am   40  LYS40      -0.1977
     30  CA         6.1280    4.8170   17.7260 C.3    40  LYS40       0.1596
     31  C          5.2970    4.6940   18.9730 C.2    40  LYS40       0.2287
     32  O          5.4350    3.6960   19.6950 O.2    40  LYS40      -0.2864
     33  CB         5.6070    3.8150   16.6910 C.3    40  LYS40       0.0298
     34  CG         5.8060    4.1940   15.2660 C.3    40  LYS40       0.0038
     35  CD         5.1840    3.1460   14.3370 C.3    40  LYS40       0.0206
     36  CE         5.1970    3.5960   12.8900 C.3    40  LYS40       0.1093
     37  NZ         4.4360    2.6060   12.0580 N.3    40  LYS40      -0.1314
     38  N          2.5910   -4.8280   13.7160 N.3    57  GLU57      -0.1245
     39  CA         3.8380   -4.4200   13.0660 C.3    57  GLU57       0.1567
     40  C          5.0230   -4.8800   13.8670 C.2    57  GLU57       0.2260
     41  O          5.9890   -5.3460   13.3060 O.2    57  GLU57      -0.2867
     42  CB         3.9080   -2.9090   12.8870 C.3    57  GLU57       0.0388
     43  CG         5.1320   -2.4880   12.1100 C.3    57  GLU57       0.1160
     44  CD         5.1030   -1.0430   11.7130 C.2    57  GLU57       0.3649
     45  OE1        4.6840   -0.2300   12.5340 O.co2  57  GLU57      -0.2457
     46  OE2        5.5290   -0.7150   10.5840 O.co2  57  GLU57      -0.2457
     47  N          7.7440   -7.5660   12.4620 N.3    61  MET61      -0.1245
     48  CA         9.1700   -7.1700   12.4750 C.3    61  MET61       0.1570
     49  C          9.9870   -8.1290   13.3290 C.2    61  MET61       0.2261
     50  O         11.1230   -8.4500   13.0060 O.2    61  MET61      -0.2867
     51  CB         9.3960   -5.7390   13.0010 C.3    61  MET61       0.0387
     52  CG         8.9800   -4.6420   12.0710 C.3    61  MET61       0.0595
     53  SD         9.5030   -3.0160   12.6960 S.3    61  MET61      -0.1393
     54  CE         8.3500   -2.8410   14.0450 C.3    61  MET61       0.0692
     55  N         14.2700   -3.3000    8.9680 N.3    70  ILE70      -0.1245
     56  CA        14.2850   -2.5340   10.2410 C.3    70  ILE70       0.1561
     57  C         14.2450   -3.5050   11.4220 C.2    70  ILE70       0.2260
     58  O         13.3930   -4.3990   11.4510 O.2    70  ILE70      -0.2867
     59  CB        13.0890   -1.5500   10.3150 C.3    70  ILE70       0.0252
     60  CG1       13.1410   -0.7730   11.6120 C.3    70  ILE70       0.0019
     61  CG2       11.7660   -2.2640   10.2150 C.3    70  ILE70       0.0019
     62  CD1       12.1950    0.3880   11.6500 C.3    70  ILE70       0.0001
     63  N          6.1900    0.9710   20.2440 N.3    84  ILE84      -0.1245
     64  CA         7.0800    0.0990   19.4820 C.3    84  ILE84       0.1561
     65  C          8.4540    0.7700   19.3180 C.2    84  ILE84       0.2260
     66  O          8.5420    1.9060   18.8250 O.2    84  ILE84      -0.2867
     67  CB         6.5380   -0.1820   18.0520 C.3    84  ILE84       0.0252
     68  CG1        5.1400   -0.8250   18.1090 C.3    84  ILE84       0.0019
     69  CG2        7.5320   -1.0380   17.2650 C.3    84  ILE84       0.0019
     70  CD1        4.4780   -0.8810   16.7660 C.3    84  ILE84       0.0001
     71  N         12.3170    0.5310   17.6430 N.3    86  THR86      -0.1203
     72  CA        13.1950   -0.0630   16.6470 C.3    86  THR86       0.1994
     73  C         14.5500    0.6380   16.6750 C.2    86  THR86       0.2618
     74  O         14.7240    1.6770   17.3310 O.2    86  THR86      -0.2717
     75  CB        12.5980    0.0600   15.2000 C.3    86  THR86       0.1784
     76  OG1       12.5820    1.4290   14.7920 O.3    86  THR86      -0.2211
     77  CG2       11.1670   -0.4980   15.1550 C.3    86  THR86       0.0376
     78  N         15.4890    0.0880   15.9240 N.am   87  GLU87      -0.1965
     79  CA        16.7200    0.8000   15.6150 C.3    87  GLU87       0.1733
     80  C         16.3290    2.1800   15.0480 C.2    87  GLU87       0.2616
     81  O         15.2400    2.3260   14.4950 O.2    87  GLU87      -0.2715
     82  CB        17.5720    0.0100   14.6370 C.3    87  GLU87       0.0429
     83  CG        17.0870   -0.0280   13.2110 C.3    87  GLU87       0.1163
     84  CD        17.9590   -0.8810   12.3160 C.2    87  GLU87       0.3649
     85  OE1       17.4520   -1.8690   11.7540 O.co2  87  GLU87      -0.2457
     86  OE2       19.1540   -0.5650   12.1890 O.co2  87  GLU87      -0.2457
     87  N         17.2210    3.1590   15.1680 N.am   88  PHE88      -0.1960
     88  CA        16.9540    4.5150   14.6940 C.3    88  PHE88       0.1771
     89  C         17.6970    4.7160   13.3800 C.2    88  PHE88       0.2619
     90  O         18.8700    4.3580   13.2600 O.2    88  PHE88      -0.2715
     91  CB        17.3990    5.5250   15.7340 C.3    88  PHE88       0.0574
     92  CG        17.2610    6.9480   15.3090 C.ar   88  PHE88      -0.0200
     93  CD1       16.0280    7.4780   14.9890 C.ar   88  PHE88      -0.0042
     94  CD2       18.3710    7.7570   15.2350 C.ar   88  PHE88      -0.0042
     95  CE1       15.9000    8.8030   14.5860 C.ar   88  PHE88      -0.0003
     96  CE2       18.2530    9.0770   14.8490 C.ar   88  PHE88      -0.0003
     97  CZ        17.0160    9.5970   14.5290 C.ar   88  PHE88      -0.0000
     98  N         16.9890    5.2340   12.3890 N.am   89  MET89      -0.1977
     99  CA        17.5180    5.4740   11.0500 C.3    89  MET89       0.1605
    100  C         17.5840    6.9910   10.8910 C.2    89  MET89       0.2287
    101  O         16.5750    7.6350   10.6990 O.2    89  MET89      -0.2864
    102  CB        16.5830    4.8200   10.0270 C.3    89  MET89       0.0413
    103  CG        16.4250    3.3080   10.2440 C.3    89  MET89       0.0598
    104  SD        17.9270    2.4090   10.0110 S.3    89  MET89      -0.1393
    105  CE        18.0230    2.4780    8.2090 C.3    89  MET89       0.0692
    106  N         15.8590    9.0870    7.9630 N.3    92  GLY92      -0.1225
    107  CA        14.4350    8.9570    7.6810 C.3    92  GLY92       0.1811
    108  C         14.0950    8.2750    6.3670 C.2    92  GLY92       0.2280
    109  O         14.8140    7.3960    5.9250 O.2    92  GLY92      -0.2866
    110  N          8.6700    3.8820    2.1610 N.3   138  ASN138     -0.1240
    111  CA         8.7930    2.8270    3.1810 C.3   138  ASN138      0.1653
    112  C         10.1940    2.2520    3.3560 C.2   138  ASN138      0.2266
    113  O         10.3750    1.2180    4.0730 O.2   138  ASN138     -0.2867
    114  CB         7.7840    1.7190    2.8700 C.3   138  ASN138      0.1155
    115  CG         6.3720    2.0910    3.3000 C.2   138  ASN138      0.2627
    116  OD1        6.1840    2.8100    4.2840 O.2   138  ASN138     -0.2716
    117  ND2        5.3830    1.5560    2.6020 N.am  138  ASN138     -0.0877
    118  N         13.8560    3.1680    4.8910 N.3   140  LEU140     -0.1245
    119  CA        14.5420    4.0990    5.8120 C.3   140  LEU140      0.1561
    120  C         16.0360    4.0050    5.6070 C.2   140  LEU140      0.2260
    121  O         16.5560    2.9620    5.2370 O.2   140  LEU140     -0.2867
    122  CB        14.2180    3.8100    7.2810 C.3   140  LEU140      0.0270
    123  CG        12.7240    3.8830    7.5910 C.3   140  LEU140      0.0019
    124  CD1       12.4270    3.2560    8.9280 C.3   140  LEU140      0.0001
    125  CD2       12.2550    5.3200    7.5760 C.3   140  LEU140      0.0001
    126  N         10.9070   -1.0380    5.6910 N.3   150  SER150     -0.1202
    127  CA         9.9810   -0.8690    6.7950 C.3   150  SER150      0.2020
    128  C          8.5200   -1.0290    6.3450 C.2   150  SER150      0.2618
    129  O          8.2560   -1.2350    5.1640 O.2   150  SER150     -0.2717
    130  CB        10.2190    0.4740    7.4600 C.3   150  SER150      0.2103
    131  OG         9.7260    1.5300    6.6560 O.3   150  SER150     -0.2182
    132  N          7.6000   -0.9110    7.3010 N.am  151  ASP151     -0.1973
    133  CA         6.1520   -0.9940    7.1180 C.3   151  ASP151      0.1709
    134  C          5.6640   -2.4360    6.9670 C.2   151  ASP151      0.2293
    135  O          5.5010   -2.9380    5.8490 O.2   151  ASP151     -0.2864
    136  CB         5.6450   -0.1540    5.9350 C.3   151  ASP151      0.1436
    137  CG         4.1410    0.0350    5.9690 C.2   151  ASP151      0.3671
    138  OD1        3.5780    0.4520    4.9460 O.co2 151  ASP151     -0.2456
    139  OD2        3.5040   -0.2500    7.0160 O.co2 151  ASP151     -0.2456
@<TRIPOS>BOND
     1   110   111    1
     2   117   115   am
     3   114   111    1
     4   114   115    1
     5   111   112    1
     6   115   116    2
     7   112   113    2
     8   118   119    1
     9   138   137   ar
    10   129   128    2
    11   121   120    2
    12   120   119    1
    13   126   127    1
    14   119   122    1
    15   135   134    2
    16   109   108    2
    17   136   137    1
    18   136   133    1
    19   137   139   ar
    20   128   127    1
    21   128   132   am
    22   108   107    1
    23   131   130    1
    24   127   130    1
    25   134   133    1
    26   133   132    1
    27   122   123    1
    28   125   123    1
    29   123   124    1
    30   107   106    1
    31   105   104    1
    32    55    56    1
    33   104   103    1
    34   102   103    1
    35   102    99    1
    36    61    59    1
    37    56    59    1
    38    56    57    1
    39    59    60    1
    40    46    44   ar
    41   101   100    2
    42   100    99    1
    43    99    98    1
    44    57    58    2
    45    60    62    1
    46    44    43    1
    47    44    45   ar
    48    85    84   ar
    49    37    36    1
    50    52    53    1
    51    52    51    1
    52    43    42    1
    53     4     3    2
    54    86    84   ar
    55    84    83    1
    56    98    89   am
    57    47    48    1
    58    48    51    1
    59    48    49    1
    60    53    54    1
    61    42    39    1
    62    36    35    1
    63    50    49    2
    64    39    38    1
    65    39    40    1
    66    83    82    1
    67    90    89    2
    68     3     2    1
    69    41    40    2
    70    89    88    1
    71    15    13    1
    72     5     2    1
    73     5     6    1
    74     5     7    1
    75     8     6    1
    76    14    13    1
    77    35    34    1
    78    13    10    1
    79     2     1    1
    80    81    80    2
    81    97    95   ar
    82    97    96   ar
    83    95    93   ar
    84    82    79    1
    85    88    87    1
    86    88    91    1
    87    76    75    1
    88    96    94   ar
    89    93    92   ar
    90    80    87   am
    91    80    79    1
    92    77    75    1
    93    75    72    1
    94    94    92   ar
    95    34    33    1
    96    92    91    1
    97    20    17    1
    98    79    78    1
    99    10     9    1
   100    10    11    1
   101    78    73   am
   102    12    11    2
   103    72    73    1
   104    72    71    1
   105    73    74    2
   106    33    30    1
   107    70    68    1
   108    17    16    1
   109    17    18    1
   110    69    67    1
   111    30    29    1
   112    30    31    1
   113    18    19    2
   114    18    21   am
   115    67    68    1
   116    67    64    1
   117    29    23   am
   118    24    23    2
   119    21    22    1
   120    23    22    1
   121    66    65    2
   122    31    32    2
   123    22    25    1
   124    65    64    1
   125    64    63    1
   126    25    26    1
   127    25    27    1
   128    26    28    1
