@<TRIPOS>MOLECULE
tmp/2vx0A00.pdb
 165 155 0 0 0
SMALL
GASTEIGER

@<TRIPOS>ATOM
      1  N          9.6200   13.3760   15.9520 N.3    14  ILE14      -0.1231
      2  CA        10.2550   13.5470   14.6410 C.3    14  ILE14       0.1692
      3  C          9.3400   13.2060   13.4780 C.2    14  ILE14       0.2592
      4  O          9.7090   13.3710   12.3240 O.2    14  ILE14      -0.2718
      5  CB        11.5640   12.7310   14.4970 C.3    14  ILE14       0.0266
      6  CG1       11.3550   11.2940   14.9580 C.3    14  ILE14       0.0019
      7  CG2       12.7140   13.3750   15.3000 C.3    14  ILE14       0.0020
      8  CD1       12.4520   10.3940   14.5750 C.3    14  ILE14       0.0001
      9  N          8.1420   12.7440   13.7540 N.am   15  GLY15      -0.1957
     10  CA         7.2280   12.4740   12.6650 C.3    15  GLY15       0.1869
     11  C          5.8790   12.0260   13.1570 C.2    15  GLY15       0.2309
     12  O          5.6030   12.0830   14.3480 O.2    15  GLY15      -0.2863
     13  N          5.8660    9.5230   15.9340 N.3    22  VAL22      -0.1245
     14  CA         7.1440    8.8360   15.8670 C.3    22  VAL22       0.1561
     15  C          8.1400    9.7430   16.5430 C.2    22  VAL22       0.2260
     16  O          8.2360   10.9270   16.1880 O.2    22  VAL22      -0.2867
     17  CB         7.5830    8.5820   14.4250 C.3    22  VAL22       0.0252
     18  CG1        8.9620    7.9180   14.3970 C.3    22  VAL22       0.0019
     19  CG2        6.5220    7.7370   13.6860 C.3    22  VAL22       0.0019
     20  N         14.0250    4.6140   17.4900 N.3    38  ALA38      -0.1231
     21  CA        12.7860    5.2170   17.0560 C.3    38  ALA38       0.1694
     22  C         11.6640    4.5910   17.8630 C.2    38  ALA38       0.2592
     23  O         11.7080    3.4000   18.1630 O.2    38  ALA38      -0.2718
     24  CB        12.5790    4.9550   15.6130 C.3    38  ALA38       0.0304
     25  N         10.6610    5.3890   18.1980 N.am   39  ILE39      -0.1966
     26  CA         9.5780    4.9880   19.0980 C.3    39  ILE39       0.1727
     27  C          8.2920    5.3910   18.4100 C.2    39  ILE39       0.2616
     28  O          8.1470    6.5660   18.0610 O.2    39  ILE39      -0.2715
     29  CB         9.6750    5.7020   20.4550 C.3    39  ILE39       0.0290
     30  CG1       11.0110    5.3610   21.1370 C.3    39  ILE39       0.0022
     31  CG2        8.4960    5.3050   21.3830 C.3    39  ILE39       0.0023
     32  CD1       11.4650    6.3110   22.1920 C.3    39  ILE39       0.0001
     33  N          7.4180    4.4230   18.1300 N.am   40  LYS40      -0.1977
     34  CA         6.0540    4.7140   17.6890 C.3    40  LYS40       0.1596
     35  C          5.1750    4.6170   18.9220 C.2    40  LYS40       0.2287
     36  O          5.2740    3.6470   19.6720 O.2    40  LYS40      -0.2864
     37  CB         5.5380    3.7210   16.6520 C.3    40  LYS40       0.0298
     38  CG         5.6410    4.1680   15.2060 C.3    40  LYS40       0.0038
     39  CD         5.0220    3.0780   14.2880 C.3    40  LYS40       0.0206
     40  CE         5.0970    3.4430   12.8170 C.3    40  LYS40       0.1093
     41  NZ         4.3040    2.4760   12.0150 N.3    40  LYS40      -0.1314
     42  N          2.5970   -4.8950   13.7260 N.3    57  GLU57      -0.1245
     43  CA         3.8030   -4.4630   13.0110 C.3    57  GLU57       0.1567
     44  C          5.0250   -4.9190   13.7410 C.2    57  GLU57       0.2260
     45  O          5.9710   -5.3800   13.1250 O.2    57  GLU57      -0.2867
     46  CB         3.8540   -2.9480   12.8170 C.3    57  GLU57       0.0388
     47  CG         5.0770   -2.4860   12.0340 C.3    57  GLU57       0.1160
     48  CD         5.0670   -1.0130   11.7110 C.2    57  GLU57       0.3649
     49  OE1        4.5280   -0.2150   12.4910 O.co2  57  GLU57      -0.2457
     50  OE2        5.6260   -0.6410   10.6750 O.co2  57  GLU57      -0.2457
     51  N          7.8380   -7.6570   12.4660 N.3    61  MET61      -0.1196
     52  CA         9.2680   -7.2450   12.4910 C.3    61  MET61       0.1786
     53  C         10.1080   -8.1670   13.3460 C.2    61  MET61       0.2306
     54  O         11.2730   -8.4690   13.0400 O.2    61  MET61      -0.2863
     55  CB         9.4370   -5.7950   13.0440 C.2    61  MET61       0.0070
     56  CG         9.0330   -4.6960   12.0950 C.2    61  MET61       0.0282
     57  SD         9.4480   -2.9960   12.6270 S.3    61  MET61      -0.1125
     58  CE         8.3070   -2.8250   13.9700 C.3    61  MET61       0.0742
     59  N         14.3120   -3.3210    8.9220 N.3    70  ILE70      -0.1245
     60  CA        14.3620   -2.5460   10.1910 C.3    70  ILE70       0.1561
     61  C         14.3020   -3.4800   11.4150 C.2    70  ILE70       0.2260
     62  O         13.4570   -4.3410   11.4960 O.2    70  ILE70      -0.2867
     63  CB        13.1950   -1.5110   10.2460 C.3    70  ILE70       0.0252
     64  CG1       13.2440   -0.6520   11.4950 C.3    70  ILE70       0.0019
     65  CG2       11.8490   -2.1870   10.2580 C.3    70  ILE70       0.0019
     66  CD1       12.0900    0.2650   11.5350 C.3    70  ILE70       0.0001
     67  N          6.1580    0.8870   20.2250 N.3    84  ILE84      -0.1245
     68  CA         7.0300    0.0110   19.4490 C.3    84  ILE84       0.1561
     69  C          8.3510    0.7420   19.2770 C.2    84  ILE84       0.2260
     70  O          8.3800    1.9040   18.8030 O.2    84  ILE84      -0.2867
     71  CB         6.4580   -0.2500   18.0360 C.3    84  ILE84       0.0252
     72  CG1        5.1040   -0.9580   18.1190 C.3    84  ILE84       0.0019
     73  CG2        7.4320   -1.0400   17.1870 C.3    84  ILE84       0.0019
     74  CD1        4.4120   -1.0400   16.8040 C.3    84  ILE84       0.0001
     75  N         12.1990    0.5480   17.5820 N.3    86  THR86      -0.1203
     76  CA        13.0990   -0.0580   16.5910 C.3    86  THR86       0.1994
     77  C         14.4700    0.6180   16.6330 C.2    86  THR86       0.2618
     78  O         14.6540    1.6060   17.3160 O.2    86  THR86      -0.2717
     79  CB        12.5470    0.0980   15.1480 C.3    86  THR86       0.1784
     80  OG1       12.5920    1.4740   14.7610 O.3    86  THR86      -0.2211
     81  CG2       11.1060   -0.3990   15.0600 C.3    86  THR86       0.0376
     82  N         15.4200    0.1150   15.8560 N.am   87  GLU87      -0.1965
     83  CA        16.6610    0.8180   15.6500 C.3    87  GLU87       0.1733
     84  C         16.3120    2.2020   15.0890 C.2    87  GLU87       0.2616
     85  O         15.2840    2.3280   14.4130 O.2    87  GLU87      -0.2715
     86  CB        17.5500    0.0220   14.6830 C.3    87  GLU87       0.0429
     87  CG        17.1430    0.1210   13.2300 C.3    87  GLU87       0.1163
     88  CD        17.9690   -0.7500   12.3370 C.2    87  GLU87       0.3649
     89  OE1       17.4130   -1.6920   11.7320 O.co2  87  GLU87      -0.2457
     90  OE2       19.1760   -0.4750   12.2220 O.co2  87  GLU87      -0.2457
     91  N         17.1480    3.2220   15.3190 N.am   88  PHE88      -0.1960
     92  CA        16.8900    4.5730   14.7610 C.3    88  PHE88       0.1771
     93  C         17.6000    4.7500   13.4140 C.2    88  PHE88       0.2619
     94  O         18.7990    4.5480   13.3150 O.2    88  PHE88      -0.2715
     95  CB        17.3500    5.6570   15.7450 C.3    88  PHE88       0.0574
     96  CG        17.1680    7.0540   15.2540 C.ar   88  PHE88      -0.0200
     97  CD1       15.9130    7.5210   14.8950 C.ar   88  PHE88      -0.0042
     98  CD2       18.2320    7.9120   15.1630 C.ar   88  PHE88      -0.0042
     99  CE1       15.7450    8.8290   14.4160 C.ar   88  PHE88      -0.0003
    100  CE2       18.0650    9.2320   14.6980 C.ar   88  PHE88      -0.0003
    101  CZ        16.8050    9.6750   14.3220 C.ar   88  PHE88      -0.0000
    102  N         16.8590    5.1510   12.3810 N.am   89  MET89      -0.1963
    103  CA        17.4310    5.4010   11.0560 C.3    89  MET89       0.1736
    104  C         17.5270    6.9240   10.9080 C.2    89  MET89       0.2616
    105  O         16.5190    7.6120   10.7260 O.2    89  MET89      -0.2715
    106  CB        16.5450    4.7660    9.9820 C.3    89  MET89       0.0427
    107  CG        16.4040    3.2370   10.1960 C.3    89  MET89       0.0599
    108  SD        17.9350    2.4200    9.8840 S.3    89  MET89      -0.1393
    109  CE        17.8610    2.3820    8.0930 C.3    89  MET89       0.0692
    110  N         18.7580    7.4250   11.0160 N.am   90  GLU90      -0.1963
    111  CA        19.0490    8.8460   11.2180 C.3    90  GLU90       0.1733
    112  C         18.6590    9.7320   10.0400 C.2    90  GLU90       0.2616
    113  O         18.4290   10.9170   10.2260 O.2    90  GLU90      -0.2715
    114  CB        20.5430    9.0500   11.4810 C.3    90  GLU90       0.0429
    115  CG        21.1060    8.3650   12.7110 C.3    90  GLU90       0.1163
    116  CD        21.6110    6.9420   12.4320 C.2    90  GLU90       0.3649
    117  OE1       21.2220    6.3340   11.4040 O.co2  90  GLU90      -0.2457
    118  OE2       22.4320    6.4610   13.2360 O.co2  90  GLU90      -0.2457
    119  N         18.5950    9.1790    8.8290 N.am   91  ASN91      -0.1958
    120  CA        18.1980    9.9600    7.6480 C.3    91  ASN91       0.1819
    121  C         16.7560    9.7570    7.1750 C.2    91  ASN91       0.2622
    122  O         16.3290   10.3440    6.1880 O.2    91  ASN91      -0.2715
    123  CB        19.1870    9.6770    6.5080 C.3    91  ASN91       0.1195
    124  CG        20.5290   10.3240    6.7400 C.2    91  ASN91       0.2630
    125  OD1       20.6010   11.5130    7.0890 O.2    91  ASN91      -0.2716
    126  ND2       21.5990    9.5800    6.4940 N.am   91  ASN91      -0.0877
    127  N         16.0010    8.9140    7.8740 N.am   92  GLY92      -0.1940
    128  CA        14.5590    8.8600    7.6980 C.3    92  GLY92       0.2014
    129  C         14.1810    8.1950    6.3990 C.2    92  GLY92       0.2638
    130  O         14.9310    7.3780    5.8920 O.2    92  GLY92      -0.2714
    131  N         13.0410    8.5740    5.8480 N.am   93  ALA93      -0.1977
    132  CA        12.4980    7.9320    4.6450 C.3    93  ALA93       0.1597
    133  C         13.2680    8.3200    3.4030 C.2    93  ALA93       0.2287
    134  O         13.5670    9.4770    3.1960 O.2    93  ALA93      -0.2864
    135  CB        11.0130    8.2980    4.4870 C.3    93  ALA93       0.0319
    136  N          8.8110    3.9400    2.2150 N.3   138  ASN138     -0.1240
    137  CA         8.8590    2.8670    3.2040 C.3   138  ASN138      0.1653
    138  C         10.2650    2.2670    3.3650 C.2   138  ASN138      0.2266
    139  O         10.4480    1.2840    4.0790 O.2   138  ASN138     -0.2867
    140  CB         7.8520    1.7750    2.8110 C.3   138  ASN138      0.1155
    141  CG         6.4310    2.0870    3.2680 C.2   138  ASN138      0.2627
    142  OD1        6.2360    2.7760    4.2640 O.2   138  ASN138     -0.2716
    143  ND2        5.4280    1.5490    2.5490 N.am  138  ASN138     -0.0877
    144  N         13.9110    3.1640    4.8450 N.3   140  LEU140     -0.1245
    145  CA        14.5780    4.0720    5.7860 C.3   140  LEU140      0.1561
    146  C         16.0590    3.9680    5.6010 C.2   140  LEU140      0.2260
    147  O         16.5580    2.9240    5.2170 O.2   140  LEU140     -0.2867
    148  CB        14.2370    3.7390    7.2360 C.3   140  LEU140      0.0270
    149  CG        12.7300    3.6590    7.5600 C.3   140  LEU140      0.0019
    150  CD1       12.5220    3.1840    8.9600 C.3   140  LEU140      0.0001
    151  CD2       12.1460    4.9740    7.4060 C.3   140  LEU140      0.0001
    152  N         10.8610   -1.2300    5.6420 N.3   150  SER150     -0.1202
    153  CA        10.0020   -0.9630    6.7730 C.3   150  SER150      0.2020
    154  C          8.5480   -1.0230    6.3020 C.2   150  SER150      0.2618
    155  O          8.2730   -1.1460    5.0960 O.2   150  SER150     -0.2717
    156  CB        10.3530    0.3920    7.3780 C.3   150  SER150      0.2103
    157  OG         9.8260    1.4760    6.6210 O.3   150  SER150     -0.2182
    158  N          7.6330   -0.9320    7.2640 N.am  151  ASP151     -0.1973
    159  CA         6.1950   -1.0080    7.0440 C.3   151  ASP151      0.1709
    160  C          5.7000   -2.4470    6.8920 C.2   151  ASP151      0.2293
    161  O          5.5360   -2.9530    5.7890 O.2   151  ASP151     -0.2864
    162  CB         5.7280   -0.1560    5.8740 C.3   151  ASP151      0.1436
    163  CG         4.2140    0.0240    5.8510 C.2   151  ASP151      0.3671
    164  OD1        3.6550    0.4330    4.8090 O.co2 151  ASP151     -0.2456
    165  OD2        3.5650   -0.2230    6.8840 O.co2 151  ASP151     -0.2456
@<TRIPOS>BOND
     1   136   137    1
     2   143   141   am
     3   140   137    1
     4   140   141    1
     5   134   133    2
     6   137   138    1
     7   141   142    2
     8   138   139    2
     9   133   132    1
    10   135   132    1
    11   132   131    1
    12   164   163   ar
    13   144   145    1
    14   155   154    2
    15   147   146    2
    16   146   145    1
    17   152   153    1
    18   145   148    1
    19   161   160    2
    20   131   129   am
    21   163   162    1
    22   163   165   ar
    23   162   159    1
    24   130   129    2
    25   122   121    2
    26   154   153    1
    27   154   158   am
    28   129   128    1
    29   126   124   am
    30   123   124    1
    31   123   120    1
    32   157   156    1
    33   124   125    2
    34   153   156    1
    35   160   159    1
    36   159   158    1
    37   121   120    1
    38   121   127   am
    39   148   149    1
    40   151   149    1
    41   149   150    1
    42   120   119    1
    43   128   127    1
    44   109   108    1
    45   119   112   am
    46    59    60    1
    47   108   107    1
    48   106   107    1
    49   106   103    1
    50   112   113    2
    51   112   111    1
    52    60    63    1
    53    60    61    1
    54    63    65    1
    55    63    64    1
    56    50    48   ar
    57   105   104    2
    58   104   110   am
    59   104   103    1
    60   110   111    1
    61   103   102    1
    62   111   114    1
    63   117   116   ar
    64    61    62    2
    65   114   115    1
    66    64    66    1
    67    48    47    1
    68    48    49   ar
    69    89    88   ar
    70    41    40    1
    71    47    46    1
    72    56    57    1
    73    56    55    2
    74    90    88   ar
    75     4     3    2
    76    88    87    1
    77   102    93   am
    78   116   115    1
    79   116   118   ar
    80    51    52    1
    81    52    55    1
    82    52    53    1
    83    57    58    1
    84    10    11    1
    85    10     9    1
    86    40    39    1
    87    46    43    1
    88    43    42    1
    89    43    44    1
    90    54    53    2
    91    45    44    2
    92    11    12    2
    93    87    86    1
    94    94    93    2
    95    93    92    1
    96     3     9   am
    97     3     2    1
    98    19    17    1
    99    39    38    1
   100   101    99   ar
   101   101   100   ar
   102    18    17    1
   103    85    84    2
   104    99    97   ar
   105    17    14    1
   106     5     2    1
   107     5     6    1
   108     5     7    1
   109     8     6    1
   110     2     1    1
   111    86    83    1
   112   100    98   ar
   113    80    79    1
   114    92    91    1
   115    92    95    1
   116    97    96   ar
   117    81    79    1
   118    84    91   am
   119    84    83    1
   120    79    76    1
   121    98    96   ar
   122    38    37    1
   123    96    95    1
   124    24    21    1
   125    83    82    1
   126    82    77   am
   127    14    13    1
   128    14    15    1
   129    16    15    2
   130    76    77    1
   131    76    75    1
   132    77    78    2
   133    37    34    1
   134    74    72    1
   135    21    20    1
   136    21    22    1
   137    73    71    1
   138    34    33    1
   139    34    35    1
   140    22    23    2
   141    22    25   am
   142    71    72    1
   143    71    68    1
   144    28    27    2
   145    33    27   am
   146    25    26    1
   147    27    26    1
   148    70    69    2
   149    35    36    2
   150    26    29    1
   151    69    68    1
   152    68    67    1
   153    29    30    1
   154    29    31    1
   155    30    32    1
