@<TRIPOS>MOLECULE
tmp/2vx3D00.pdb
 196 188 0 0 0
SMALL
GASTEIGER

@<TRIPOS>ATOM
      1  N        -21.4150  -16.2530  -40.1980 N.3    31  ILE31      -0.1231
      2  CA       -21.2730  -15.0340  -39.4090 C.3    31  ILE31       0.1692
      3  C        -22.1720  -14.9520  -38.1890 C.2    31  ILE31       0.2593
      4  O        -22.1060  -13.9740  -37.4720 O.2    31  ILE31      -0.2718
      5  CB       -21.3870  -13.7370  -40.2730 C.3    31  ILE31       0.0266
      6  CG1      -22.8200  -13.3260  -40.5950 C.3    31  ILE31       0.0019
      7  CG2      -20.6870  -13.9370  -41.6170 C.3    31  ILE31       0.0020
      8  CD1      -22.8560  -12.1200  -41.6230 C.3    31  ILE31       0.0001
      9  N        -22.9960  -15.9710  -37.9390 N.am   32  GLY32      -0.1942
     10  CA       -23.7600  -16.0750  -36.6790 C.3    32  GLY32       0.2014
     11  C        -24.7580  -17.2340  -36.6730 C.2    32  GLY32       0.2639
     12  O        -25.2590  -17.6490  -37.7480 O.2    32  GLY32      -0.2714
     13  N        -25.0250  -17.7580  -35.4670 N.am   33  LYS33      -0.1963
     14  CA       -25.9980  -18.8370  -35.2290 C.3    33  LYS33       0.1728
     15  C        -27.1510  -18.3180  -34.3870 C.2    33  LYS33       0.2616
     16  O        -26.9460  -17.5110  -33.4990 O.2    33  LYS33      -0.2715
     17  CB       -25.3490  -19.9720  -34.4590 C.3    33  LYS33       0.0311
     18  CG       -24.5650  -20.9850  -35.2930 C.3    33  LYS33       0.0038
     19  CD       -24.3550  -22.2770  -34.4710 C.3    33  LYS33       0.0206
     20  CE       -23.4690  -23.3170  -35.1780 C.3    33  LYS33       0.1093
     21  NZ       -24.2350  -24.3600  -35.9140 N.3    33  LYS33      -0.1314
     22  N        -28.3630  -18.7870  -34.6430 N.am   34  GLY34      -0.1955
     23  CA       -29.5010  -18.3940  -33.8140 C.3    34  GLY34       0.1869
     24  C        -30.5580  -19.4630  -33.6420 C.2    34  GLY34       0.2309
     25  O        -30.4320  -20.5710  -34.1720 O.2    34  GLY34      -0.2863
     26  N        -33.3520  -19.7240  -35.1190 N.3    36  PHE36      -0.1227
     27  CA       -34.0000  -20.1300  -36.3960 C.3    36  PHE36       0.1736
     28  C        -33.0310  -20.7210  -37.4160 C.2    36  PHE36       0.2596
     29  O        -33.4480  -21.2530  -38.4450 O.2    36  PHE36      -0.2718
     30  CB       -34.7410  -18.9410  -37.0520 C.3    36  PHE36       0.0547
     31  CG       -36.1530  -18.7170  -36.5250 C.ar   36  PHE36      -0.0202
     32  CD1      -37.2670  -18.9930  -37.3350 C.ar   36  PHE36      -0.0042
     33  CD2      -36.3650  -18.2320  -35.2370 C.ar   36  PHE36      -0.0042
     34  CE1      -38.5580  -18.7870  -36.8560 C.ar   36  PHE36      -0.0003
     35  CE2      -37.6400  -18.0230  -34.7440 C.ar   36  PHE36      -0.0003
     36  CZ       -38.7400  -18.2990  -35.5420 C.ar   36  PHE36      -0.0000
     37  N        -31.7400  -20.6160  -37.1460 N.am   37  GLY37      -0.1942
     38  CA       -30.7500  -21.1930  -38.0430 C.3    37  GLY37       0.2014
     39  C        -29.4680  -20.4100  -37.9760 C.2    37  GLY37       0.2639
     40  O        -28.9940  -20.0650  -36.8870 O.2    37  GLY37      -0.2714
     41  N        -28.9340  -20.0930  -39.1480 N.am   38  GLN38      -0.1963
     42  CA       -27.5920  -19.5070  -39.2680 C.3    38  GLN38       0.1733
     43  C        -27.5640  -18.3330  -40.2550 C.2    38  GLN38       0.2616
     44  O        -28.3170  -18.3040  -41.2330 O.2    38  GLN38      -0.2715
     45  CB       -26.6310  -20.5900  -39.7530 C.3    38  GLN38       0.0408
     46  CG       -26.4580  -21.7380  -38.7890 C.3    38  GLN38       0.0908
     47  CD       -25.6130  -22.8690  -39.3680 C.2    38  GLN38       0.2608
     48  OE1      -24.5240  -23.1670  -38.8730 O.2    38  GLN38      -0.2717
     49  NE2      -26.1170  -23.5040  -40.4180 N.am   38  GLN38      -0.0878
     50  N        -26.6940  -17.3670  -40.0240 N.am   39  VAL39      -0.1977
     51  CA       -26.4190  -16.3560  -41.0510 C.3    39  VAL39       0.1596
     52  C        -24.9830  -16.5480  -41.5480 C.2    39  VAL39       0.2287
     53  O        -24.0360  -16.6450  -40.7370 O.2    39  VAL39      -0.2864
     54  CB       -26.6780  -14.9270  -40.5370 C.3    39  VAL39       0.0276
     55  CG1      -26.3940  -13.8970  -41.6210 C.3    39  VAL39       0.0022
     56  CG2      -28.1180  -14.8230  -40.0790 C.3    39  VAL39       0.0022
     57  N        -25.9030  -11.3350  -46.9700 N.3    52  ALA52      -0.1245
     58  CA       -26.0440  -12.1590  -45.7800 C.3    52  ALA52       0.1562
     59  C        -27.1820  -13.0970  -46.1010 C.2    52  ALA52       0.2260
     60  O        -28.2720  -12.6320  -46.4610 O.2    52  ALA52      -0.2867
     61  CB       -26.3840  -11.3080  -44.5310 C.3    52  ALA52       0.0290
     62  N        -29.4800  -16.0930  -44.6160 N.3    54  LYS54      -0.1245
     63  CA       -29.9680  -16.7760  -43.4290 C.3    54  LYS54       0.1561
     64  C        -30.4410  -18.1610  -43.8700 C.2    54  LYS54       0.2260
     65  O        -31.3170  -18.2530  -44.6970 O.2    54  LYS54      -0.2867
     66  CB       -31.1250  -15.9880  -42.8310 C.3    54  LYS54       0.0271
     67  CG       -31.6510  -16.4450  -41.4710 C.3    54  LYS54       0.0035
     68  CD       -32.9920  -15.7370  -41.2430 C.3    54  LYS54       0.0206
     69  CE       -33.3140  -15.4130  -39.8140 C.3    54  LYS54       0.1093
     70  NZ       -34.4920  -14.4450  -39.7690 N.3    54  LYS54      -0.1314
     71  N        -34.9870   -4.2900  -42.7600 N.3    88  VAL88      -0.1245
     72  CA       -34.0420   -4.9940  -43.6170 C.3    88  VAL88       0.1561
     73  C        -34.6990   -5.3960  -44.9640 C.2    88  VAL88       0.2260
     74  O        -35.8880   -5.7050  -45.0430 O.2    88  VAL88      -0.2867
     75  CB       -33.3980   -6.1920  -42.8770 C.3    88  VAL88       0.0252
     76  CG1      -34.4550   -7.2300  -42.4920 C.3    88  VAL88       0.0019
     77  CG2      -32.2200   -6.7830  -43.6800 C.3    88  VAL88       0.0019
     78  N        -30.3820  -11.4760  -47.6690 N.3   104  PHE104     -0.1227
     79  CA       -30.6350  -10.1210  -47.1700 C.3   104  PHE104      0.1736
     80  C        -29.5050   -9.2230  -47.5920 C.2   104  PHE104      0.2595
     81  O        -28.3820   -9.6920  -47.7910 O.2   104  PHE104     -0.2718
     82  CB       -30.6550  -10.0700  -45.6490 C.3   104  PHE104      0.0547
     83  CG       -31.8590  -10.6920  -45.0130 C.ar  104  PHE104     -0.0202
     84  CD1      -33.0340  -10.0000  -44.9190 C.ar  104  PHE104     -0.0042
     85  CD2      -31.7920  -11.9440  -44.4520 C.ar  104  PHE104     -0.0042
     86  CE1      -34.1580  -10.5580  -44.3100 C.ar  104  PHE104     -0.0003
     87  CE2      -32.9030  -12.4930  -43.8160 C.ar  104  PHE104     -0.0003
     88  CZ       -34.0960  -11.7960  -43.7600 C.ar  104  PHE104     -0.0000
     89  N        -29.7960   -7.9250  -47.6870 N.am  105  GLU105     -0.1965
     90  CA       -28.7590   -6.9210  -47.8460 C.3   105  GLU105      0.1733
     91  C        -27.7850   -7.0070  -46.6610 C.2   105  GLU105      0.2616
     92  O        -28.1890   -7.3280  -45.5330 O.2   105  GLU105     -0.2715
     93  CB       -29.3610   -5.5230  -47.8830 C.3   105  GLU105      0.0429
     94  CG       -30.0380   -5.1070  -46.5270 C.3   105  GLU105      0.1163
     95  CD       -30.6160   -3.6950  -46.5320 C.2   105  GLU105      0.3649
     96  OE1      -30.0050   -2.8010  -47.1560 O.co2 105  GLU105     -0.2457
     97  OE2      -31.6620   -3.4740  -45.8750 O.co2 105  GLU105     -0.2457
     98  N        -26.5260   -6.6760  -46.9320 N.am  106  MET106     -0.1963
     99  CA       -25.4600   -6.7110  -45.9610 C.3   106  MET106      0.1736
    100  C        -25.5050   -5.4250  -45.1610 C.2   106  MET106      0.2616
    101  O        -25.3180   -4.3380  -45.7060 O.2   106  MET106     -0.2715
    102  CB       -24.0730   -6.8320  -46.6460 C.3   106  MET106      0.0427
    103  CG       -22.9110   -7.0930  -45.6800 C.3   106  MET106      0.0599
    104  SD       -22.9650   -8.7540  -44.9400 S.3   106  MET106     -0.1393
    105  CE       -22.6920   -8.3880  -43.2440 C.3   106  MET106      0.0692
    106  N        -25.7200   -5.6000  -43.8600 N.am  107  LEU107     -0.1963
    107  CA       -25.6230   -4.5850  -42.8400 C.3   107  LEU107      0.1728
    108  C        -24.4040   -4.8830  -41.9710 C.2   107  LEU107      0.2617
    109  O        -23.7680   -5.8940  -42.1460 O.2   107  LEU107     -0.2715
    110  CB       -26.8950   -4.6060  -41.9790 C.3   107  LEU107      0.0311
    111  CG       -28.1910   -4.5390  -42.7760 C.3   107  LEU107      0.0022
    112  CD1      -29.3930   -4.8450  -41.8660 C.3   107  LEU107      0.0001
    113  CD2      -28.3500   -3.1750  -43.4400 C.3   107  LEU107      0.0001
    114  N        -24.1030   -3.9970  -41.0260 N.am  108  SER108     -0.1936
    115  CA       -22.9920   -4.1490  -40.0760 C.3   108  SER108      0.2055
    116  C        -23.4390   -4.6410  -38.6410 C.2   108  SER108      0.2643
    117  O        -24.3730   -5.4390  -38.5020 O.2   108  SER108     -0.2714
    118  CB       -22.2600   -2.8010  -40.0120 C.3   108  SER108      0.2130
    119  OG       -21.0240   -2.9190  -39.3440 O.3   108  SER108     -0.2179
    120  N        -22.7620   -4.1660  -37.5920 N.am  109  TYR109     -0.1959
    121  CA       -22.9320   -4.6810  -36.2280 C.3   109  TYR109      0.1771
    122  C        -24.2650   -4.2620  -35.6550 C.2   109  TYR109      0.2619
    123  O        -24.8200   -3.2550  -36.0820 O.2   109  TYR109     -0.2715
    124  CB       -21.8190   -4.1440  -35.3210 C.3   109  TYR109      0.0574
    125  CG       -20.4670   -4.5840  -35.7680 C.ar  109  TYR109     -0.0198
    126  CD1      -20.0590   -5.9150  -35.5960 C.ar  109  TYR109     -0.0009
    127  CD2      -19.5920   -3.7000  -36.4000 C.ar  109  TYR109     -0.0009
    128  CE1      -18.7970   -6.3610  -36.0400 C.ar  109  TYR109      0.0417
    129  CE2      -18.3370   -4.1340  -36.8520 C.ar  109  TYR109      0.0417
    130  CZ       -17.9540   -5.4680  -36.6680 C.ar  109  TYR109      0.1957
    131  OH       -16.7340   -5.9080  -37.1020 O.3   109  TYR109     -0.2866
    132  N        -24.7500   -5.0230  -34.6680 N.am  110  ASN110     -0.1972
    133  CA       -25.9790   -4.6990  -33.9240 C.3   110  ASN110      0.1688
    134  C        -25.7160   -3.8090  -32.7060 C.2   110  ASN110      0.2292
    135  O        -24.5750   -3.6680  -32.2710 O.2   110  ASN110     -0.2864
    136  CB       -26.7420   -5.9710  -33.5230 C.3   110  ASN110      0.1181
    137  CG       -26.0000   -6.8360  -32.5350 C.2   110  ASN110      0.2629
    138  OD1      -25.5430   -6.3810  -31.4740 O.2   110  ASN110     -0.2716
    139  ND2      -25.9200   -8.1120  -32.8520 N.am  110  ASN110     -0.0877
    140  N        -23.5680   -5.2360  -29.9290 N.3   113  ASP113     -0.1239
    141  CA       -22.1300   -5.1510  -30.2980 C.3   113  ASP113      0.1674
    142  C        -21.5710   -3.7280  -30.0500 C.2   113  ASP113      0.2266
    143  O        -20.4630   -3.5600  -29.5510 O.2   113  ASP113     -0.2867
    144  CB       -21.8990   -5.5420  -31.7740 C.3   113  ASP113      0.1410
    145  CG       -22.3140   -6.9910  -32.1000 C.2   113  ASP113      0.3668
    146  OD1      -22.0830   -7.8710  -31.2140 O.co2 113  ASP113     -0.2456
    147  OD2      -22.8490   -7.2440  -33.2470 O.co2 113  ASP113     -0.2456
    148  N        -35.0470   -5.9860  -29.6260 N.3   155  LYS155     -0.1245
    149  CA       -34.0120   -5.9380  -28.6310 C.3   155  LYS155      0.1561
    150  C        -32.7480   -5.4400  -29.3370 C.2   155  LYS155      0.2260
    151  O        -32.6870   -5.4320  -30.5520 O.2   155  LYS155     -0.2867
    152  CB       -33.7960   -7.3310  -28.0660 C.3   155  LYS155      0.0271
    153  CG       -33.4080   -8.3660  -29.1240 C.3   155  LYS155      0.0035
    154  CD       -33.5790   -9.8100  -28.5970 C.3   155  LYS155      0.0206
    155  CE       -33.1280  -10.8320  -29.6570 C.3   155  LYS155      0.1093
    156  NZ       -33.4850  -12.1960  -29.3030 N.3   155  LYS155     -0.1314
    157  N        -29.9720   -6.7070  -30.1270 N.3   157  GLU157     -0.1231
    158  CA       -29.4010   -7.6060  -31.1370 C.3   157  GLU157      0.1699
    159  C        -30.1470   -7.5430  -32.4610 C.2   157  GLU157      0.2592
    160  O        -29.5920   -7.9610  -33.4770 O.2   157  GLU157     -0.2718
    161  CB       -29.3660   -9.0610  -30.6720 C.3   157  GLU157      0.0402
    162  CG       -28.2550   -9.3820  -29.6730 C.3   157  GLU157      0.1161
    163  CD       -28.6360   -9.0950  -28.2200 C.2   157  GLU157      0.3649
    164  OE1      -29.6190   -8.3450  -27.9590 O.co2 157  GLU157     -0.2457
    165  OE2      -27.9320   -9.6410  -27.3440 O.co2 157  GLU157     -0.2457
    166  N        -31.3920   -7.0470  -32.4540 N.am  158  ASN158     -0.1974
    167  CA       -32.2190   -7.0670  -33.6640 C.3   158  ASN158      0.1688
    168  C        -32.3260   -5.6970  -34.3560 C.2   158  ASN158      0.2292
    169  O        -33.1270   -5.5200  -35.2630 O.2   158  ASN158     -0.2864
    170  CB       -33.6150   -7.5900  -33.3310 C.3   158  ASN158      0.1181
    171  CG       -33.6740   -9.1070  -33.1940 C.2   158  ASN158      0.2629
    172  OD1      -32.9140   -9.8310  -33.8020 O.2   158  ASN158     -0.2716
    173  ND2      -34.6400   -9.5830  -32.4260 N.am  158  ASN158     -0.0877
    174  N        -29.6620   -3.2690  -36.3550 N.3   160  LEU160     -0.1245
    175  CA       -28.3120   -3.2990  -36.9220 C.3   160  LEU160      0.1561
    176  C        -27.9330   -1.9520  -37.5150 C.2   160  LEU160      0.2260
    177  O        -28.7830   -1.2670  -38.1090 O.2   160  LEU160     -0.2867
    178  CB       -28.1790   -4.4040  -37.9780 C.3   160  LEU160      0.0270
    179  CG       -27.8250   -5.8440  -37.5080 C.3   160  LEU160      0.0019
    180  CD1      -28.8130   -6.4100  -36.5050 C.3   160  LEU160      0.0001
    181  CD2      -27.7060   -6.7900  -38.7240 C.3   160  LEU160      0.0001
    182  N        -34.0210   -6.0500  -37.9360 N.3   172  VAL172     -0.1231
    183  CA       -34.0460   -7.3980  -38.5260 C.3   172  VAL172      0.1692
    184  C        -34.8910   -8.3960  -37.7500 C.2   172  VAL172      0.2592
    185  O        -35.4070   -8.1070  -36.6650 O.2   172  VAL172     -0.2718
    186  CB       -32.6100   -7.9630  -38.6500 C.3   172  VAL172      0.0266
    187  CG1      -31.7680   -6.9950  -39.4450 C.3   172  VAL172      0.0020
    188  CG2      -32.0120   -8.2330  -37.2990 C.3   172  VAL172      0.0020
    189  N        -35.0410   -9.5720  -38.3340 N.am  173  ASP173     -0.1974
    190  CA       -35.5930  -10.7580  -37.6450 C.3   173  ASP173      0.1709
    191  C        -37.0470  -10.5960  -37.2670 C.2   173  ASP173      0.2293
    192  O        -37.3860  -10.3220  -36.1060 O.2   173  ASP173     -0.2864
    193  CB       -34.7890  -11.1240  -36.4040 C.3   173  ASP173      0.1436
    194  CG       -35.2680  -12.4420  -35.7430 C.2   173  ASP173      0.3671
    195  OD1      -35.9150  -13.2950  -36.4190 O.co2 173  ASP173     -0.2456
    196  OD2      -34.9850  -12.5940  -34.5280 O.co2 173  ASP173     -0.2456
@<TRIPOS>BOND
     1    93    90    1
     2    93    94    1
     3    90    89    1
     4    90    91    1
     5    81    80    2
     6    89    80   am
     7    78    79    1
     8    80    79    1
     9    79    82    1
    10    96    95   ar
    11    57    58    1
    12    98    91   am
    13    98    99    1
    14    91    92    2
    15   102    99    1
    16   102   103    1
    17    95    94    1
    18    95    97   ar
    19    60    59    2
    20    59    58    1
    21    99   100    1
    22    58    61    1
    23   101   100    2
    24   103   104    1
    25    82    83    1
    26   100   106   am
    27    74    73    2
    28    83    84   ar
    29    83    85   ar
    30    73    72    1
    31   104   105    1
    32    84    86   ar
    33    65    64    2
    34    62    63    1
    35    85    87   ar
    36    86    88   ar
    37    64    63    1
    38   106   107    1
    39    87    88   ar
    40    77    75    1
    41    72    75    1
    42    72    71    1
    43   113   111    1
    44    63    66    1
    45    75    76    1
    46   107   110    1
    47   107   108    1
    48    66    67    1
    49   111   110    1
    50   111   112    1
    51   109   108    2
    52   108   114   am
    53     8     6    1
    54    55    54    1
    55     7     5    1
    56    52    51    1
    57    52    53    2
    58    67    68    1
    59    68    69    1
    60    44    43    2
    61    51    54    1
    62    51    50    1
    63   114   115    1
    64     6     5    1
    65    54    56    1
    66    49    47   am
    67     5     2    1
    68    43    50   am
    69    43    42    1
    70     1     2    1
    71   115   118    1
    72   115   116    1
    73   118   119    1
    74    69    70    1
    75    45    42    1
    76    45    46    1
    77   187   186    1
    78     2     3    1
    79    47    48    2
    80    47    46    1
    81    42    41    1
    82    41    39   am
    83   181   179    1
    84   186   183    1
    85   186   188    1
    86   116   117    2
    87   116   120   am
    88   183   182    1
    89   183   184    1
    90    29    28    2
    91   189   184   am
    92   189   190    1
    93     3     9   am
    94     3     4    2
    95   177   176    2
    96    38    39    1
    97    38    37    1
    98   178   179    1
    99   178   175    1
   100    39    40    2
   101     9    10    1
   102   184   185    2
   103    12    11    2
   104   190   191    1
   105   190   193    1
   106   120   121    1
   107   176   175    1
   108   179   180    1
   109    28    37   am
   110    28    27    1
   111    32    34   ar
   112    32    31   ar
   113   191   192    2
   114   131   130    1
   115    30    31    1
   116    30    27    1
   117   175   174    1
   118    34    36   ar
   119   129   130   ar
   120   129   127   ar
   121    10    11    1
   122    11    13   am
   123   130   128   ar
   124    31    33   ar
   125   195   194   ar
   126   193   194    1
   127   127   125   ar
   128    27    26    1
   129   121   122    1
   130   121   124    1
   131   123   122    2
   132   128   126   ar
   133    21    20    1
   134   125   126   ar
   135   125   124    1
   136   194   196   ar
   137   122   132   am
   138    36    35   ar
   139    13    14    1
   140    18    19    1
   141    18    17    1
   142   169   168    2
   143    33    35   ar
   144    14    17    1
   145    14    15    1
   146    20    19    1
   147   132   133    1
   148    22    15   am
   149    22    23    1
   150    15    16    2
   151   168   167    1
   152    25    24    2
   153   133   136    1
   154   133   134    1
   155    23    24    1
   156   172   171    2
   157   167   170    1
   158   167   166    1
   159   136   137    1
   160   160   159    2
   161   170   171    1
   162   147   145   ar
   163   171   173   am
   164   139   137   am
   165   134   135    2
   166   137   138    2
   167   159   166   am
   168   159   158    1
   169   145   144    1
   170   145   146   ar
   171   144   141    1
   172   158   161    1
   173   158   157    1
   174   161   162    1
   175   151   150    2
   176   141   142    1
   177   141   140    1
   178   142   143    2
   179   162   163    1
   180   155   156    1
   181   155   154    1
   182   148   149    1
   183   150   149    1
   184   153   154    1
   185   153   152    1
   186   149   152    1
   187   163   164   ar
   188   163   165   ar
