@<TRIPOS>MOLECULE
tmp/2vx6A00.pdb
 198 192 0 0 0
SMALL
GASTEIGER

@<TRIPOS>ATOM
      1  N         59.5390   44.2770  -10.7700 N.3    33  GLU33      -0.1245
      2  CA        58.6790   44.2640  -11.9750 C.3    33  GLU33       0.1567
      3  C         59.5060   44.0910  -13.2400 C.2    33  GLU33       0.2260
      4  O         60.5430   44.7320  -13.4030 O.2    33  GLU33      -0.2867
      5  CB        57.8840   45.5810  -12.0490 C.3    33  GLU33       0.0388
      6  CG        56.8650   45.6940  -13.1660 C.3    33  GLU33       0.1160
      7  CD        55.6010   44.8710  -12.9680 C.2    33  GLU33       0.3649
      8  OE1       55.4700   44.2040  -11.9290 O.co2  33  GLU33      -0.2457
      9  OE2       54.7230   44.9050  -13.8740 O.co2  33  GLU33      -0.2457
     10  N         52.9770   42.3550  -16.1140 N.3    65  GLU65      -0.1245
     11  CA        51.9400   43.3550  -16.4510 C.3    65  GLU65       0.1567
     12  C         51.2580   43.0060  -17.7570 C.2    65  GLU65       0.2260
     13  O         51.9190   42.7840  -18.7670 O.2    65  GLU65      -0.2867
     14  CB        52.6220   44.7270  -16.5510 C.3    65  GLU65       0.0388
     15  CG        51.8580   45.8170  -17.2400 C.3    65  GLU65       0.1160
     16  CD        50.5350   46.1320  -16.5910 C.2    65  GLU65       0.3649
     17  OE1       50.4530   46.2330  -15.3420 O.co2  65  GLU65      -0.2457
     18  OE2       49.5680   46.2970  -17.3490 O.co2  65  GLU65      -0.2457
     19  N         51.9830   46.8280  -22.9490 N.3    77  LEU77      -0.1231
     20  CA        52.0570   48.2820  -23.2000 C.3    77  LEU77       0.1693
     21  C         53.4760   48.8320  -23.1250 C.2    77  LEU77       0.2592
     22  O         53.7400   49.9570  -23.5570 O.2    77  LEU77      -0.2718
     23  CB        51.1020   49.0720  -22.2940 C.3    77  LEU77       0.0284
     24  CG        51.4920   49.3350  -20.8320 C.3    77  LEU77       0.0019
     25  CD1       50.4630   50.2630  -20.1900 C.3    77  LEU77       0.0001
     26  CD2       51.6480   48.0440  -20.0040 C.3    77  LEU77       0.0001
     27  N         54.3660   48.0250  -22.5620 N.am   78  ASP78      -0.1974
     28  CA        55.8010   48.3430  -22.4740 C.3    78  ASP78       0.1709
     29  C         56.6520   47.4860  -23.4110 C.2    78  ASP78       0.2293
     30  O         57.8700   47.3830  -23.2640 O.2    78  ASP78      -0.2864
     31  CB        56.3030   48.1960  -21.0410 C.3    78  ASP78       0.1436
     32  CG        55.5800   49.1000  -20.0740 C.2    78  ASP78       0.3671
     33  OD1       55.3380   50.2910  -20.4190 O.co2  78  ASP78      -0.2456
     34  OD2       55.2810   48.6280  -18.9490 O.co2  78  ASP78      -0.2456
     35  N         47.1600   47.0510  -16.3590 N.3   104  HIS104     -0.1241
     36  CA        46.8220   48.4090  -16.7840 C.3   104  HIS104      0.1621
     37  C         45.9310   48.2950  -18.0160 C.2   104  HIS104      0.2264
     38  O         46.3690   48.4270  -19.1510 O.2   104  HIS104     -0.2867
     39  CB        48.0770   49.2270  -17.0910 C.3   104  HIS104      0.0745
     40  CG        48.8630   49.6440  -15.8810 C.ar  104  HIS104      0.0817
     41  ND1       49.6050   48.7590  -15.1250 N.ar  104  HIS104     -0.2268
     42  CD2       49.0270   50.8560  -15.3010 C.ar  104  HIS104      0.1154
     43  CE1       50.2130   49.4130  -14.1480 C.ar  104  HIS104      0.1986
     44  NE2       49.8820   50.6890  -14.2350 N.ar  104  HIS104     -0.2212
     45  N         45.3300   55.5870  -18.4200 N.3   115  TRP115     -0.1241
     46  CA        45.3900   56.9780  -17.9470 C.3   115  TRP115      0.1605
     47  C         44.4210   57.8910  -18.6930 C.2   115  TRP115      0.2264
     48  O         44.2750   59.0740  -18.3690 O.2   115  TRP115     -0.2867
     49  CB        46.8200   57.5320  -18.0580 C.3   115  TRP115      0.0550
     50  CG        47.8140   56.8520  -17.1550 C.ar  115  TRP115      0.0003
     51  CD1       48.1910   57.2460  -15.9160 C.ar  115  TRP115      0.0946
     52  CD2       48.5370   55.6430  -17.4350 C.ar  115  TRP115      0.0152
     53  NE1       49.1150   56.3650  -15.4030 N.ar  115  TRP115     -0.2442
     54  CE2       49.3460   55.3730  -16.3190 C.ar  115  TRP115      0.0810
     55  CE3       48.5790   54.7710  -18.5220 C.ar  115  TRP115      0.0012
     56  CZ2       50.1790   54.2600  -16.2610 C.ar  115  TRP115      0.0191
     57  CZ3       49.4110   53.6820  -18.4680 C.ar  115  TRP115      0.0001
     58  CH2       50.1980   53.4340  -17.3550 C.ar  115  TRP115      0.0015
     59  N         44.1450   48.3730   -9.6190 N.3   168  HIS168     -0.1226
     60  CA        44.9500   48.9230   -8.5150 C.3   168  HIS168      0.1752
     61  C         44.8770   50.4350   -8.3960 C.2   168  HIS168      0.2595
     62  O         44.4720   51.1340   -9.3140 O.2   168  HIS168     -0.2718
     63  CB        46.4080   48.4350   -8.6200 C.3   168  HIS168      0.0759
     64  CG        47.1510   48.9680   -9.7980 C.ar  168  HIS168      0.0818
     65  ND1       46.7320   48.7790  -11.1020 N.ar  168  HIS168     -0.2268
     66  CD2       48.3130   49.6630   -9.8690 C.ar  168  HIS168      0.1154
     67  CE1       47.5990   49.3550  -11.9190 C.ar  168  HIS168      0.1986
     68  NE2       48.5690   49.8940  -11.1970 N.ar  168  HIS168     -0.2212
     69  N         45.2600   50.9230   -7.2210 N.am  169  GLU169     -0.1979
     70  CA        45.3460   52.3770   -6.9440 C.3   169  GLU169      0.1602
     71  C         44.0460   53.0970   -7.2580 C.2   169  GLU169      0.2287
     72  O         44.0050   54.2300   -7.7310 O.2   169  GLU169     -0.2864
     73  CB        46.5230   52.9910   -7.7100 C.3   169  GLU169      0.0415
     74  CG        47.8630   52.3710   -7.3190 C.3   169  GLU169      0.1163
     75  CD        49.0360   52.7960   -8.1660 C.2   169  GLU169      0.3649
     76  OE1       48.8710   53.6520   -9.0670 O.co2 169  GLU169     -0.2457
     77  OE2       50.1470   52.2350   -7.9370 O.co2 169  GLU169     -0.2457
     78  N         43.6760   56.6110  -13.0480 N.3   175  PHE175     -0.1241
     79  CA        43.1950   55.5490  -13.9320 C.3   175  PHE175      0.1605
     80  C         41.7010   55.6940  -14.1340 C.2   175  PHE175      0.2264
     81  O         40.9840   56.2050  -13.2750 O.2   175  PHE175     -0.2867
     82  CB        43.4500   54.1550  -13.3320 C.3   175  PHE175      0.0534
     83  CG        44.9050   53.8260  -13.1020 C.ar  175  PHE175     -0.0203
     84  CD1       45.8660   54.0890  -14.0700 C.ar  175  PHE175     -0.0042
     85  CD2       45.2990   53.1950  -11.9290 C.ar  175  PHE175     -0.0042
     86  CE1       47.1960   53.7620  -13.8520 C.ar  175  PHE175     -0.0003
     87  CE2       46.6240   52.8480  -11.7200 C.ar  175  PHE175     -0.0003
     88  CZ        47.5700   53.1280  -12.6770 C.ar  175  PHE175     -0.0000
     89  N         46.4890   53.2010   -3.1910 N.3   214  ASP214     -0.1239
     90  CA        47.6920   54.0390   -3.1540 C.3   214  ASP214      0.1674
     91  C         47.7450   54.8670   -1.8820 C.2   214  ASP214      0.2266
     92  O         46.8290   55.5980   -1.5500 O.2   214  ASP214     -0.2867
     93  CB        47.7420   54.9840   -4.3550 C.3   214  ASP214      0.1410
     94  CG        49.1300   55.4640   -4.6380 C.2   214  ASP214      0.3668
     95  OD1       49.7180   56.1290   -3.7820 O.co2 214  ASP214     -0.2456
     96  OD2       49.6360   55.1730   -5.7240 O.co2 214  ASP214     -0.2456
     97  N         54.8600   54.7610   -2.9350 N.3   245  TYR245     -0.1241
     98  CA        56.0440   55.4790   -3.4070 C.3   245  TYR245      0.1605
     99  C         56.2080   56.7800   -2.6290 C.2   245  TYR245      0.2264
    100  O         57.2570   57.4220   -2.6500 O.2   245  TYR245     -0.2867
    101  CB        55.9380   55.8060   -4.8940 C.3   245  TYR245      0.0534
    102  CG        55.8540   54.6180   -5.8240 C.ar  245  TYR245     -0.0201
    103  CD1       56.9910   54.0800   -6.4010 C.ar  245  TYR245     -0.0009
    104  CD2       54.6290   54.0620   -6.1570 C.ar  245  TYR245     -0.0009
    105  CE1       56.9200   53.0090   -7.2590 C.ar  245  TYR245      0.0417
    106  CE2       54.5430   52.9970   -7.0140 C.ar  245  TYR245      0.0417
    107  CZ        55.6930   52.4780   -7.5830 C.ar  245  TYR245      0.1957
    108  OH        55.6260   51.4260   -8.4710 O.3   245  TYR245     -0.2866
    109  N         59.2270   60.3550   -2.8740 N.3   250  HIS250     -0.1226
    110  CA        58.5330   60.8910   -4.0560 C.3   250  HIS250      0.1752
    111  C         58.8180   62.3910   -4.1710 C.2   250  HIS250      0.2595
    112  O         58.7360   63.1320   -3.1930 O.2   250  HIS250     -0.2718
    113  CB        57.0310   60.6600   -3.9640 C.3   250  HIS250      0.0759
    114  CG        56.3130   60.9290   -5.2440 C.ar  250  HIS250      0.0818
    115  ND1       56.0720   62.2050   -5.7070 N.ar  250  HIS250     -0.2268
    116  CD2       55.8060   60.0890   -6.1760 C.ar  250  HIS250      0.1154
    117  CE1       55.4290   62.1370   -6.8600 C.ar  250  HIS250      0.1986
    118  NE2       55.2570   60.8650   -7.1690 N.ar  250  HIS250     -0.2212
    119  N         59.1290   62.8060   -5.3880 N.am  251  GLU251     -0.1979
    120  CA        59.5840   64.1840   -5.6510 C.3   251  GLU251      0.1602
    121  C         58.5880   65.2490   -5.2070 C.2   251  GLU251      0.2287
    122  O         58.9800   66.3730   -4.8690 O.2   251  GLU251     -0.2864
    123  CB        59.9720   64.3830   -7.1310 C.3   251  GLU251      0.0415
    124  CG        58.8580   64.2210   -8.1590 C.3   251  GLU251      0.1163
    125  CD        58.2570   62.8300   -8.3510 C.2   251  GLU251      0.3649
    126  OE1       58.5510   61.8950   -7.6420 O.co2 251  GLU251     -0.2457
    127  OE2       57.4040   62.7460   -9.3000 O.co2 251  GLU251     -0.2457
    128  N         53.7160   47.8010   -4.3480 N.3   286  GLU286     -0.1245
    129  CA        54.5650   48.6730   -5.1820 C.3   286  GLU286      0.1567
    130  C         55.2260   49.7170   -4.3230 C.2   286  GLU286      0.2260
    131  O         54.6050   50.3010   -3.4580 O.2   286  GLU286     -0.2867
    132  CB        53.8000   49.4180   -6.2820 C.3   286  GLU286      0.0388
    133  CG        53.1710   48.5710   -7.3740 C.3   286  GLU286      0.1160
    134  CD        52.6590   49.3950   -8.5410 C.2   286  GLU286      0.3649
    135  OE1       53.1900   50.5170   -8.7710 O.co2 286  GLU286     -0.2457
    136  OE2       51.7100   48.9210   -9.2260 O.co2 286  GLU286     -0.2457
    137  N         62.3980   56.3370   -7.7970 N.3   290  ASN290     -0.1240
    138  CA        62.7160   56.3900   -9.2420 C.3   290  ASN290      0.1653
    139  C         64.0880   57.0200   -9.4490 C.2   290  ASN290      0.2266
    140  O         64.3670   58.1310   -8.9900 O.2   290  ASN290     -0.2867
    141  CB        61.6230   57.1840   -9.9930 C.3   290  ASN290      0.1155
    142  CG        61.6230   56.9480  -11.4890 C.2   290  ASN290      0.2627
    143  OD1       62.4660   56.2530  -12.0330 O.2   290  ASN290     -0.2716
    144  ND2       60.6240   57.5240  -12.1610 N.am  290  ASN290     -0.0877
    145  N         59.2660   48.7790   -8.7340 N.3   321  TRP321     -0.1227
    146  CA        58.8130   48.8600  -10.1390 C.3   321  TRP321      0.1737
    147  C         59.9680   48.6410  -11.1200 C.2   321  TRP321      0.2595
    148  O         61.1060   48.3520  -10.7460 O.2   321  TRP321     -0.2718
    149  CB        58.0190   50.1430  -10.3800 C.3   321  TRP321      0.0564
    150  CG        57.0250   50.0260  -11.4960 C.ar  321  TRP321      0.0003
    151  CD1       57.0060   50.7430  -12.6630 C.ar  321  TRP321      0.0946
    152  CD2       55.9100   49.1310  -11.5660 C.ar  321  TRP321      0.0152
    153  NE1       55.9540   50.3490  -13.4420 N.ar  321  TRP321     -0.2442
    154  CE2       55.2660   49.3570  -12.8000 C.ar  321  TRP321      0.0810
    155  CE3       55.3890   48.1650  -10.7050 C.ar  321  TRP321      0.0012
    156  CZ2       54.1250   48.6530  -13.1880 C.ar  321  TRP321      0.0191
    157  CZ3       54.2680   47.4690  -11.0950 C.ar  321  TRP321      0.0001
    158  CH2       53.6450   47.7170  -12.3190 C.ar  321  TRP321      0.0015
    159  N         59.6470   48.7550  -12.3970 N.am  322  ARG322     -0.1980
    160  CA        60.4970   48.2330  -13.4820 C.3   322  ARG322      0.1597
    161  C         61.7020   49.1000  -13.7770 C.2   322  ARG322      0.2287
    162  O         61.7420   50.2840  -13.4720 O.2   322  ARG322     -0.2864
    163  CB        59.6770   48.0520  -14.7670 C.3   322  ARG322      0.0334
    164  CG        59.2630   49.3550  -15.4400 C.3   322  ARG322      0.0492
    165  CD        58.0410   49.2080  -16.3220 C.3   322  ARG322      0.2205
    166  NE        57.8220   50.4250  -17.0790 N.pl3 322  ARG322     -0.0865
    167  CZ        58.3680   50.6910  -18.2580 C.cat 322  ARG322      0.5346
    168  NH1       59.1300   49.8090  -18.8720 N.pl3 322  ARG322      0.1354
    169  NH2       58.1340   51.8560  -18.8240 N.pl3 322  ARG322      0.1354
    170  N         63.1340   53.4320  -24.4860 N.3   329  GLU329     -0.1245
    171  CA        62.1350   54.3200  -23.8680 C.3   329  GLU329      0.1567
    172  C         62.4840   55.7880  -23.7390 C.2   329  GLU329      0.2260
    173  O         61.6270   56.6380  -23.4850 O.2   329  GLU329     -0.2867
    174  CB        61.6820   53.7610  -22.5430 C.3   329  GLU329      0.0388
    175  CG        61.0960   52.3670  -22.7650 C.3   329  GLU329      0.1160
    176  CD        60.0490   51.9890  -21.7450 C.2   329  GLU329      0.3649
    177  OE1       59.9040   50.7860  -21.4630 O.co2 329  GLU329     -0.2457
    178  OE2       59.3870   52.9050  -21.2200 O.co2 329  GLU329     -0.2457
    179  N         64.0870   55.6860  -16.0810 N.3   333  GLN333     -0.1245
    180  CA        63.0980   55.2640  -15.1100 C.3   333  GLN333      0.1566
    181  C         63.5370   53.9030  -14.6300 C.2   333  GLN333      0.2260
    182  O         63.6460   52.9700  -15.4200 O.2   333  GLN333     -0.2867
    183  CB        61.6970   55.1580  -15.7290 C.3   333  GLN333      0.0367
    184  CG        60.6880   54.5890  -14.7350 C.3   333  GLN333      0.0905
    185  CD        59.3430   54.2070  -15.3360 C.2   333  GLN333      0.2608
    186  OE1       59.0880   54.3930  -16.5390 O.2   333  GLN333     -0.2717
    187  NE2       58.4810   53.6510  -14.5000 N.am  333  GLN333     -0.0878
    188  N         63.9020   51.3720  -10.7090 N.3   335  PHE335     -0.1241
    189  CA        63.6810   51.2550   -9.2680 C.3   335  PHE335      0.1605
    190  C         64.5490   50.2250   -8.5650 C.2   335  PHE335      0.2264
    191  O         64.5820   50.1830   -7.3430 O.2   335  PHE335     -0.2867
    192  CB        62.1980   50.9970   -8.9760 C.3   335  PHE335      0.0534
    193  CG        61.2900   52.0840   -9.4670 C.ar  335  PHE335     -0.0203
    194  CD1       60.8340   53.0650   -8.6050 C.ar  335  PHE335     -0.0042
    195  CD2       60.8990   52.1310  -10.8010 C.ar  335  PHE335     -0.0042
    196  CE1       59.9990   54.0710   -9.0500 C.ar  335  PHE335     -0.0003
    197  CE2       60.0610   53.1340  -11.2440 C.ar  335  PHE335     -0.0003
    198  CZ        59.6140   54.0990  -10.3700 C.ar  335  PHE335     -0.0000
@<TRIPOS>BOND
     1   170   171    1
     2   171   172    1
     3   171   174    1
     4   172   173    2
     5    22    21    2
     6    29    30    2
     7    29    28    1
     8    20    21    1
     9    20    19    1
    10    20    23    1
    11    21    27   am
    12   175   174    1
    13   175   176    1
    14    27    28    1
    15    28    31    1
    16    23    24    1
    17   176   177   ar
    18   176   178   ar
    19    31    32    1
    20    24    25    1
    21    24    26    1
    22    33    32   ar
    23    32    34   ar
    24    38    37    2
    25   168   167    1
    26   169   167    1
    27    13    12    2
    28    47    48    2
    29    47    46    1
    30    55    57   ar
    31    55    52   ar
    32    57    58   ar
    33    45    46    1
    34   167   166    2
    35    49    46    1
    36    49    50    1
    37    37    36    1
    38    12    11    1
    39    52    50   ar
    40    52    54   ar
    41    58    56   ar
    42    18    16   ar
    43    15    16    1
    44    15    14    1
    45    50    51   ar
    46    39    36    1
    47    39    40    1
    48   166   165    1
    49    36    35    1
    50    16    17   ar
    51    14    11    1
    52   186   185    2
    53    11    10    1
    54   165   164    1
    55    54    56   ar
    56    54    53   ar
    57   179   180    1
    58    51    53   ar
    59    40    42   ar
    60    40    41   ar
    61   183   180    1
    62   183   184    1
    63   164   163    1
    64   182   181    2
    65   185   184    1
    66   185   187   am
    67    42    44   ar
    68    41    43   ar
    69   180   181    1
    70   163   160    1
    71    44    43   ar
    72    80    79    1
    73    80    81    2
    74    84    86   ar
    75    84    83   ar
    76    79    82    1
    77    79    78    1
    78     9     7   ar
    79    86    88   ar
    80   161   160    1
    81   161   162    2
    82   160   159    1
    83   153   154   ar
    84   153   151   ar
    85     4     3    2
    86    82    83    1
    87     3     2    1
    88   156   154   ar
    89   156   158   ar
    90     6     7    1
    91     6     5    1
    92    83    85   ar
    93     7     8   ar
    94   154   152   ar
    95    88    87   ar
    96   151   150   ar
    97   159   147   am
    98   158   157   ar
    99   144   142   am
   100     5     2    1
   101   143   142    2
   102     2     1    1
   103    85    87   ar
   104    67    68   ar
   105    67    65   ar
   106   152   150   ar
   107   152   155   ar
   108   150   149    1
   109   142   141    1
   110   197   195   ar
   111   197   198   ar
   112    68    66   ar
   113   147   148    2
   114   147   146    1
   115    65    64   ar
   116   157   155   ar
   117   195   193   ar
   118   188   189    1
   119   149   146    1
   120   198   196   ar
   121   146   145    1
   122   141   138    1
   123    66    64   ar
   124    64    63    1
   125    59    60    1
   126   193   192    1
   127   193   194   ar
   128   139   138    1
   129   139   140    2
   130    62    61    2
   131   127   125   ar
   132   189   192    1
   133   189   190    1
   134   138   137    1
   135   136   134   ar
   136    76    75   ar
   137   196   194   ar
   138   135   134   ar
   139    63    60    1
   140   190   191    2
   141   134   133    1
   142    60    61    1
   143   108   107    1
   144    61    69   am
   145   125   124    1
   146   125   126   ar
   147    75    77   ar
   148    75    74    1
   149   124   123    1
   150    72    71    2
   151    73    74    1
   152    73    70    1
   153   107   105   ar
   154   107   106   ar
   155   133   132    1
   156   105   103   ar
   157    71    70    1
   158    69    70    1
   159   118   117   ar
   160   118   116   ar
   161   123   120    1
   162   106   104   ar
   163   117   115   ar
   164   103   102   ar
   165   132   129    1
   166   116   114   ar
   167   104   102   ar
   168   102   101    1
   169    96    94   ar
   170   115   114   ar
   171   120   119    1
   172   120   121    1
   173   119   111   am
   174   114   113    1
   175   121   122    2
   176   129   128    1
   177   129   130    1
   178   101    98    1
   179    94    93    1
   180    94    95   ar
   181    93    90    1
   182   130   131    2
   183   111   110    1
   184   111   112    2
   185   110   113    1
   186   110   109    1
   187    98    97    1
   188    98    99    1
   189    89    90    1
   190    90    91    1
   191   100    99    2
   192    91    92    2
