@<TRIPOS>MOLECULE
tmp/2vx7A00.pdb
 192 188 0 0 0
SMALL
GASTEIGER

@<TRIPOS>ATOM
      1  N        -33.8440    0.6640   91.8710 N.3    33  GLU33      -0.1245
      2  CA       -33.4360   -0.0690   93.0810 C.3    33  GLU33       0.1567
      3  C        -34.0040    0.5570   94.3780 C.2    33  GLU33       0.2260
      4  O        -33.9720    1.7780   94.5640 O.2    33  GLU33      -0.2867
      5  CB       -31.9010   -0.1010   93.1600 C.3    33  GLU33       0.0388
      6  CG       -31.3310   -0.9160   94.3050 C.3    33  GLU33       0.1160
      7  CD       -31.4080   -2.4130   94.0900 C.2    33  GLU33       0.3649
      8  OE1      -31.9380   -2.8440   93.0590 O.co2  33  GLU33      -0.2457
      9  OE2      -30.9130   -3.1700   94.9690 O.co2  33  GLU33      -0.2457
     10  N        -32.2890   -6.0040   97.2420 N.3    65  GLU65      -0.1245
     11  CA       -30.9120   -6.3660   97.5760 C.3    65  GLU65       0.1567
     12  C        -30.8450   -7.1460   98.8790 C.2    65  GLU65       0.2260
     13  O        -31.3590   -6.6930   99.8960 O.2    65  GLU65      -0.2867
     14  CB       -30.0700   -5.0760   97.6840 C.3    65  GLU65       0.0388
     15  CG       -28.7160   -5.2240   98.3760 C.3    65  GLU65       0.1160
     16  CD       -27.7790   -6.2080   97.6950 C.2    65  GLU65       0.3649
     17  OE1      -27.6680   -6.2050   96.4410 O.co2  65  GLU65      -0.2457
     18  OE2      -27.1430   -6.9930   98.4360 O.co2  65  GLU65      -0.2457
     19  N        -27.8370   -4.6950  104.0740 N.3    77  LEU77      -0.1231
     20  CA       -26.6280   -3.9110  104.3280 C.3    77  LEU77       0.1693
     21  C        -26.8810   -2.4070  104.2340 C.2    77  LEU77       0.2592
     22  O        -26.0520   -1.6080  104.6850 O.2    77  LEU77      -0.2718
     23  CB       -25.4780   -4.3230  103.4080 C.3    77  LEU77       0.0284
     24  CG       -25.4780   -3.8670  101.9400 C.3    77  LEU77       0.0019
     25  CD1      -24.1900   -4.3100  101.2690 C.3    77  LEU77       0.0001
     26  CD2      -26.6890   -4.4100  101.1810 C.3    77  LEU77       0.0001
     27  N        -28.0270   -2.0320  103.6700 N.am   78  ASP78      -0.1974
     28  CA       -28.4340   -0.6190  103.5780 C.3    78  ASP78       0.1709
     29  C        -29.5950   -0.3090  104.5180 C.2    78  ASP78       0.2293
     30  O        -30.2740    0.7200  104.3870 O.2    78  ASP78      -0.2864
     31  CB       -28.8200   -0.2440  102.1410 C.3    78  ASP78       0.1436
     32  CG       -27.6880   -0.4160  101.1630 C.2    78  ASP78       0.3671
     33  OD1      -26.5500   -0.0090  101.4920 O.co2  78  ASP78      -0.2456
     34  OD2      -27.9460   -0.9400  100.0500 O.co2  78  ASP78      -0.2456
     35  N        -25.2700   -8.6780   97.4600 N.3   104  HIS104     -0.1241
     36  CA       -23.9180   -8.2920   97.8680 C.3   104  HIS104      0.1621
     37  C        -23.5640   -9.1200   99.0970 C.2   104  HIS104      0.2264
     38  O        -23.6610   -8.6770  100.2430 O.2   104  HIS104     -0.2867
     39  CB       -23.8220   -6.7900   98.1580 C.3   104  HIS104      0.0745
     40  CG       -23.8530   -5.9160   96.9310 C.ar  104  HIS104      0.0817
     41  ND1      -24.9980   -5.7260   96.1880 N.ar  104  HIS104     -0.2268
     42  CD2      -22.8970   -5.1420   96.3540 C.ar  104  HIS104      0.1154
     43  CE1      -24.7440   -4.8900   95.1930 C.ar  104  HIS104      0.1986
     44  NE2      -23.4760   -4.5250   95.2640 N.ar  104  HIS104     -0.2212
     45  N        -16.9030   -6.0150   99.6080 N.3   115  TRP115     -0.1241
     46  CA       -15.7480   -5.2360   99.1150 C.3   115  TRP115      0.1605
     47  C        -14.4610   -5.6420   99.8400 C.2   115  TRP115      0.2264
     48  O        -13.3730   -5.1510   99.5400 O.2   115  TRP115     -0.2867
     49  CB       -15.9980   -3.7230   99.2670 C.3   115  TRP115      0.0550
     50  CG       -17.1370   -3.2060   98.4200 C.ar  115  TRP115      0.0003
     51  CD1      -17.0450   -2.6250   97.1910 C.ar  115  TRP115      0.0946
     52  CD2      -18.5300   -3.2200   98.7510 C.ar  115  TRP115      0.0152
     53  NE1      -18.2920   -2.2830   96.7380 N.ar  115  TRP115     -0.2442
     54  CE2      -19.2210   -2.6450   97.6730 C.ar  115  TRP115      0.0810
     55  CE3      -19.2610   -3.6730   99.8530 C.ar  115  TRP115      0.0012
     56  CZ2      -20.6030   -2.5040   97.6670 C.ar  115  TRP115      0.0191
     57  CZ3      -20.6230   -3.5490   99.8390 C.ar  115  TRP115      0.0001
     58  CH2      -21.2840   -2.9610   98.7610 C.ar  115  TRP115      0.0015
     59  N        -30.2080  -12.0890   90.2070 N.3   165  ARG165     -0.1245
     60  CA       -28.9850  -11.5910   89.5620 C.3   165  ARG165      0.1563
     61  C        -27.7870  -11.6440   90.5220 C.2   165  ARG165      0.2260
     62  O        -27.3480  -10.6200   91.0540 O.2   165  ARG165     -0.2867
     63  CB       -29.2290  -10.1560   89.0650 C.3   165  ARG165      0.0307
     64  CG       -28.1600   -9.6190   88.1690 C.3   165  ARG165      0.0489
     65  CD       -28.6390   -8.3510   87.5020 C.3   165  ARG165      0.2205
     66  NE       -28.8290   -7.2770   88.4780 N.pl3 165  ARG165     -0.0865
     67  CZ       -27.8400   -6.4970   88.8850 C.cat 165  ARG165      0.5346
     68  NH1      -26.6070   -6.6640   88.3840 N.pl3 165  ARG165      0.1354
     69  NH2      -28.0940   -5.5350   89.7740 N.pl3 165  ARG165      0.1354
     70  N        -22.6330  -10.5180   90.6840 N.3   168  HIS168     -0.1226
     71  CA       -22.5710   -9.5190   89.6000 C.3   168  HIS168      0.1752
     72  C        -21.1970   -8.8750   89.4800 C.2   168  HIS168      0.2595
     73  O        -20.4090   -8.8720   90.4260 O.2   168  HIS168     -0.2718
     74  CB       -23.6560   -8.4410   89.8090 C.3   168  HIS168      0.0759
     75  CG       -23.4980   -7.6510   91.0760 C.ar  168  HIS168      0.0818
     76  ND1      -23.6130   -8.2190   92.3260 N.ar  168  HIS168     -0.2268
     77  CD2      -23.2220   -6.3400   91.2850 C.ar  168  HIS168      0.1154
     78  CE1      -23.4050   -7.2970   93.2500 C.ar  168  HIS168      0.1986
     79  NE2      -23.1760   -6.1430   92.6460 N.ar  168  HIS168     -0.2212
     80  N        -20.9240   -8.3350   88.2940 N.am  169  GLU169     -0.1979
     81  CA       -19.7150   -7.5030   88.0510 C.3   169  GLU169      0.1602
     82  C        -18.4300   -8.2760   88.3490 C.2   169  GLU169      0.2287
     83  O        -17.4450   -7.7530   88.8480 O.2   169  GLU169     -0.2864
     84  CB       -19.7880   -6.1980   88.8480 C.3   169  GLU169      0.0415
     85  CG       -20.9560   -5.3170   88.4100 C.3   169  GLU169      0.1163
     86  CD       -21.2590   -4.1440   89.3150 C.2   169  GLU169      0.3649
     87  OE1      -20.4910   -3.8650   90.2710 O.co2 169  GLU169     -0.2457
     88  OE2      -22.3040   -3.4940   89.0540 O.co2 169  GLU169     -0.2457
     89  N        -13.4430   -5.6700   92.4040 N.3   174  TRP174     -0.1227
     90  CA       -13.8440   -4.9530   93.6190 C.3   174  TRP174      0.1737
     91  C        -14.6390   -5.7770   94.6260 C.2   174  TRP174      0.2595
     92  O        -14.7370   -5.4000   95.7960 O.2   174  TRP174     -0.2718
     93  CB       -14.5850   -3.6460   93.3050 C.3   174  TRP174      0.0564
     94  CG       -15.6530   -3.7410   92.2390 C.ar  174  TRP174      0.0003
     95  CD1      -16.9660   -4.0760   92.4100 C.ar  174  TRP174      0.0946
     96  CD2      -15.4830   -3.4670   90.8450 C.ar  174  TRP174      0.0152
     97  NE1      -17.6180   -4.0390   91.1980 N.ar  174  TRP174     -0.2442
     98  CE2      -16.7290   -3.6680   90.2240 C.ar  174  TRP174      0.0810
     99  CE3      -14.3900   -3.0790   90.0620 C.ar  174  TRP174      0.0012
    100  CZ2      -16.9180   -3.4790   88.8640 C.ar  174  TRP174      0.0191
    101  CZ3      -14.5810   -2.8950   88.7110 C.ar  174  TRP174      0.0001
    102  CH2      -15.8330   -3.0900   88.1240 C.ar  174  TRP174      0.0015
    103  N        -15.1910   -6.8990   94.1710 N.am  175  PHE175     -0.1976
    104  CA       -15.8730   -7.8510   95.0540 C.3   175  PHE175      0.1639
    105  C        -15.0140   -9.0970   95.2580 C.2   175  PHE175      0.2290
    106  O        -14.2010   -9.4530   94.4030 O.2   175  PHE175     -0.2864
    107  CB       -17.2250   -8.2810   94.4540 C.3   175  PHE175      0.0560
    108  CG       -18.2150   -7.1520   94.2630 C.ar  175  PHE175     -0.0200
    109  CD1      -18.4020   -6.1920   95.2410 C.ar  175  PHE175     -0.0042
    110  CD2      -18.9720   -7.0740   93.0950 C.ar  175  PHE175     -0.0042
    111  CE1      -19.3350   -5.1670   95.0750 C.ar  175  PHE175     -0.0003
    112  CE2      -19.9060   -6.0540   92.9150 C.ar  175  PHE175     -0.0003
    113  CZ       -20.0810   -5.0900   93.9040 C.ar  175  PHE175     -0.0000
    114  N        -23.9580   -4.4090   83.5590 N.3   243  ASP243     -0.1239
    115  CA       -23.8870   -3.2460   84.4310 C.3   243  ASP243      0.1674
    116  C        -22.9700   -2.2410   83.7380 C.2   243  ASP243      0.2266
    117  O        -21.8060   -2.5150   83.4660 O.2   243  ASP243     -0.2867
    118  CB       -23.3800   -3.5960   85.8390 C.3   243  ASP243      0.1410
    119  CG       -24.3950   -4.4050   86.6580 C.2   243  ASP243      0.3668
    120  OD1      -25.4270   -4.8230   86.0890 O.co2 243  ASP243     -0.2456
    121  OD2      -24.1620   -4.6120   87.8800 O.co2 243  ASP243     -0.2456
    122  N        -22.2700    1.7350   84.1200 N.3   245  TYR245     -0.1241
    123  CA       -22.2720    3.1010   84.6120 C.3   245  TYR245      0.1605
    124  C        -21.2060    3.9070   83.8670 C.2   245  TYR245      0.2264
    125  O        -21.1460    5.1350   83.9560 O.2   245  TYR245     -0.2867
    126  CB       -21.9470    3.1350   86.1030 C.3   245  TYR245      0.0534
    127  CG       -22.9600    2.4710   87.0030 C.ar  245  TYR245     -0.0201
    128  CD1      -24.0240    3.1810   87.5270 C.ar  245  TYR245     -0.0009
    129  CD2      -22.8450    1.1330   87.3270 C.ar  245  TYR245     -0.0009
    130  CE1      -24.9290    2.5780   88.3650 C.ar  245  TYR245      0.0417
    131  CE2      -23.7520    0.5170   88.1410 C.ar  245  TYR245      0.0417
    132  CZ       -24.7930    1.2390   88.6620 C.ar  245  TYR245      0.1957
    133  OH       -25.6840    0.6050   89.4970 O.3   245  TYR245     -0.2866
    134  N        -27.9560   -2.6160   85.4300 N.3   286  ALA286     -0.1245
    135  CA       -27.6250   -1.5100   86.3390 C.3   286  ALA286      0.1562
    136  C        -26.9330   -0.4170   85.5670 C.2   286  ALA286      0.2260
    137  O        -26.0360   -0.6890   84.7690 O.2   286  ALA286     -0.2867
    138  CB       -26.7240   -1.9770   87.4950 C.3   286  ALA286      0.0290
    139  N        -29.8170    2.6650   89.8470 N.3   321  TRP321     -0.1227
    140  CA       -29.5470    2.2910   91.2450 C.3   321  TRP321      0.1737
    141  C        -30.2880    3.1950   92.2260 C.2   321  TRP321      0.2595
    142  O        -31.0890    4.0650   91.8530 O.2   321  TRP321     -0.2718
    143  CB       -28.0260    2.2270   91.5040 C.3   321  TRP321      0.0564
    144  CG       -27.6280    1.2960   92.6240 C.ar  321  TRP321      0.0003
    145  CD1      -27.0120    1.6380   93.7870 C.ar  321  TRP321      0.0946
    146  CD2      -27.8310   -0.1250   92.6810 C.ar  321  TRP321      0.0152
    147  NE1      -26.8060    0.5230   94.5680 N.ar  321  TRP321     -0.2442
    148  CE2      -27.3110   -0.5720   93.9170 C.ar  321  TRP321      0.0810
    149  CE3      -28.4020   -1.0600   91.8100 C.ar  321  TRP321      0.0012
    150  CZ2      -27.3340   -1.9200   94.2980 C.ar  321  TRP321      0.0191
    151  CZ3      -28.4390   -2.3980   92.1940 C.ar  321  TRP321      0.0001
    152  CH2      -27.9150   -2.8110   93.4350 C.ar  321  TRP321      0.0015
    153  N        -30.0130    2.9560   93.4940 N.am  322  ARG322     -0.1980
    154  CA       -30.8460    3.4410   94.5910 C.3   322  ARG322      0.1597
    155  C        -30.6950    4.9290   94.8920 C.2   322  ARG322      0.2287
    156  O        -29.7050    5.5680   94.5280 O.2   322  ARG322     -0.2864
    157  CB       -30.5810    2.6120   95.8630 C.3   322  ARG322      0.0334
    158  CG       -29.2640    2.9270   96.5770 C.3   322  ARG322      0.0492
    159  CD       -28.7840    1.7600   97.4460 C.3   322  ARG322      0.2205
    160  NE       -27.6150    2.1710   98.2030 N.pl3 322  ARG322     -0.0865
    161  CZ       -27.6570    2.7960   99.3750 C.cat 322  ARG322      0.5346
    162  NH1      -28.8050    3.0210   99.9740 N.pl3 322  ARG322      0.1354
    163  NH2      -26.5350    3.1870   99.9540 N.pl3 322  ARG322      0.1354
    164  N        -27.5300    8.3640  105.5490 N.3   329  GLU329     -0.1245
    165  CA       -26.2790    7.8580  104.9570 C.3   329  GLU329      0.1567
    166  C        -25.1320    8.8620  104.7890 C.2   329  GLU329      0.2260
    167  O        -23.9970    8.4770  104.5020 O.2   329  GLU329     -0.2867
    168  CB       -26.5730    7.1800  103.6290 C.3   329  GLU329      0.0388
    169  CG       -27.5350    6.0110  103.8230 C.3   329  GLU329      0.1160
    170  CD       -27.3540    4.9000  102.8050 C.2   329  GLU329      0.3649
    171  OE1      -28.3260    4.1340  102.5860 O.co2 329  GLU329     -0.2457
    172  OE2      -26.2560    4.8180  102.2280 O.co2 329  GLU329     -0.2457
    173  N        -26.0940   10.1120   97.2600 N.3   333  GLN333     -0.1245
    174  CA       -26.0200    9.0750   96.2610 C.3   333  GLN333      0.1566
    175  C        -27.4410    8.8100   95.7650 C.2   333  GLN333      0.2260
    176  O        -28.3290    8.4510   96.5390 O.2   333  GLN333     -0.2867
    177  CB       -25.4150    7.7960   96.8440 C.3   333  GLN333      0.0367
    178  CG       -25.3630    6.6910   95.8010 C.3   333  GLN333      0.0905
    179  CD       -24.9690    5.3230   96.3520 C.2   333  GLN333      0.2608
    180  OE1      -24.7100    5.1470   97.5690 O.2   333  GLN333     -0.2717
    181  NE2      -24.9390    4.3480   95.4660 N.am  333  GLN333     -0.0878
    182  N        -29.8240    7.9400   91.7930 N.3   335  PHE335     -0.1241
    183  CA       -29.7820    7.6910   90.3530 C.3   335  PHE335      0.1605
    184  C        -31.1040    7.9540   89.6400 C.2   335  PHE335      0.2264
    185  O        -31.1650    7.9620   88.4050 O.2   335  PHE335     -0.2867
    186  CB       -29.3060    6.2550   90.0970 C.3   335  PHE335      0.0534
    187  CG       -27.9100    5.9830   90.5940 C.ar  335  PHE335     -0.0203
    188  CD1      -26.8190    6.0590   89.7340 C.ar  335  PHE335     -0.0042
    189  CD2      -27.6870    5.6510   91.9220 C.ar  335  PHE335     -0.0042
    190  CE1      -25.5380    5.8090   90.1880 C.ar  335  PHE335     -0.0003
    191  CE2      -26.4060    5.3950   92.3800 C.ar  335  PHE335     -0.0003
    192  CZ       -25.3330    5.4720   91.5240 C.ar  335  PHE335     -0.0000
@<TRIPOS>BOND
     1   117   116    2
     2   114   115    1
     3   116   115    1
     4   124   125    2
     5   124   123    1
     6   122   123    1
     7   115   118    1
     8   123   126    1
     9   137   136    2
    10   134   135    1
    11   136   135    1
    12   118   119    1
    13   120   119   ar
    14   126   127    1
    15   135   138    1
    16   119   121   ar
    17   127   129   ar
    18   127   128   ar
    19   129   131   ar
    20    65    64    1
    21    65    66    1
    22   128   130   ar
    23    81    80    1
    24    81    82    1
    25    81    84    1
    26   102   101   ar
    27   102   100   ar
    28   131   132   ar
    29    64    63    1
    30    80    72   am
    31    82    83    2
    32   130   132   ar
    33    68    67    1
    34   185   184    2
    35    85    84    1
    36    85    86    1
    37    66    67    2
    38   132   133    1
    39   101    99   ar
    40   100    98   ar
    41    67    69    1
    42    88    86   ar
    43    63    60    1
    44    86    87   ar
    45    72    71    1
    46    72    73    2
    47    60    59    1
    48    60    61    1
    49    71    74    1
    50    71    70    1
    51   184   183    1
    52   188   190   ar
    53   188   187   ar
    54    74    75    1
    55   139   140    1
    56    99    96   ar
    57   186   183    1
    58   186   187    1
    59   190   192   ar
    60    98    96   ar
    61    98    97   ar
    62   183   182    1
    63    61    62    2
    64   187   189   ar
    65    96    94   ar
    66    75    77   ar
    67    75    76   ar
    68    97    95   ar
    69   140   143    1
    70   140   141    1
    71    77    79   ar
    72   143   144    1
    73   192   191   ar
    74   149   151   ar
    75   149   146   ar
    76   142   141    2
    77     1     2    1
    78   189   191   ar
    79   151   152   ar
    80   141   153   am
    81    94    95   ar
    82    94    93    1
    83    76    78   ar
    84    89    90    1
    85   144   146   ar
    86   144   145   ar
    87    79    78   ar
    88   146   148   ar
    89   112   110   ar
    90   112   113   ar
    91     8     7   ar
    92     2     5    1
    93     2     3    1
    94   110   108   ar
    95     5     6    1
    96    93    90    1
    97   152   150   ar
    98   153   154    1
    99    90    91    1
   100   145   147   ar
   101   113   111   ar
   102   148   150   ar
   103   148   147   ar
   104     7     6    1
   105     7     9   ar
   106   103    91   am
   107   103   104    1
   108   108   107    1
   109   108   109   ar
   110     3     4    2
   111   106   105    2
   112   107   104    1
   113   156   155    2
   114   154   155    1
   115   154   157    1
   116    91    92    2
   117   104   105    1
   118   111   109   ar
   119    43    44   ar
   120    43    41   ar
   121    44    42   ar
   122   181   179   am
   123   175   174    1
   124   175   176    2
   125   178   179    1
   126   178   177    1
   127   157   158    1
   128    41    40   ar
   129   174   177    1
   130   174   173    1
   131   179   180    2
   132    42    40   ar
   133    17    16   ar
   134   158   159    1
   135    53    51   ar
   136    53    54   ar
   137    40    39    1
   138    51    50   ar
   139    10    11    1
   140   159   160    1
   141    35    36    1
   142    11    14    1
   143    11    12    1
   144    56    54   ar
   145    56    58   ar
   146    54    52   ar
   147    14    15    1
   148    16    15    1
   149    16    18   ar
   150    36    39    1
   151    36    37    1
   152   160   161    2
   153    50    52   ar
   154    50    49    1
   155    52    55   ar
   156    58    57   ar
   157    12    13    2
   158    37    38    2
   159    46    49    1
   160    46    45    1
   161    46    47    1
   162   161   163    1
   163   161   162    1
   164    48    47    2
   165    57    55   ar
   166    34    32   ar
   167    32    33   ar
   168    32    31    1
   169    26    24    1
   170    25    24    1
   171    24    23    1
   172    31    28    1
   173   172   170   ar
   174   171   170   ar
   175   170   169    1
   176    23    20    1
   177    28    27    1
   178    28    29    1
   179   168   169    1
   180   168   165    1
   181    27    21   am
   182    19    20    1
   183    21    20    1
   184    21    22    2
   185    30    29    2
   186   167   166    2
   187   166   165    1
   188   165   164    1
