@<TRIPOS>MOLECULE
tmp/2vxcA00.pdb
 134 127 0 0 0
SMALL
GASTEIGER

@<TRIPOS>ATOM
      1  N        -17.7750   25.7890    4.4380 N.3    11  PHE11      -0.1227
      2  CA       -16.4730   26.3440    4.7340 C.3    11  PHE11       0.1736
      3  C        -15.4800   25.2160    4.9300 C.2    11  PHE11       0.2596
      4  O        -15.7950   24.1900    5.5190 O.2    11  PHE11      -0.2718
      5  CB       -16.5280   27.2710    5.9500 C.3    11  PHE11       0.0547
      6  CG       -17.3230   28.5240    5.7170 C.ar   11  PHE11      -0.0202
      7  CD1      -18.7110   28.4860    5.6620 C.ar   11  PHE11      -0.0042
      8  CD2      -16.6840   29.7380    5.5500 C.ar   11  PHE11      -0.0042
      9  CE1      -19.4470   29.6340    5.4450 C.ar   11  PHE11      -0.0003
     10  CE2      -17.4160   30.8970    5.3280 C.ar   11  PHE11      -0.0003
     11  CZ       -18.7990   30.8440    5.2750 C.ar   11  PHE11      -0.0000
     12  N        -14.2850   25.3980    4.3950 N.am   12  SER12      -0.1938
     13  CA       -13.2400   24.4140    4.5540 C.3    12  SER12       0.2055
     14  C        -12.0900   25.1150    5.2410 C.2    12  SER12       0.2643
     15  O        -11.9890   26.3340    5.1860 O.2    12  SER12      -0.2714
     16  CB       -12.8100   23.8770    3.1930 C.3    12  SER12       0.2130
     17  OG       -11.8950   22.8130    3.3320 O.3    12  SER12      -0.2179
     18  N        -11.2290   24.3520    5.8990 N.am   13  GLY13      -0.1954
     19  CA       -10.0930   24.9370    6.5790 C.3    13  GLY13       0.1869
     20  C        -10.5130   25.8630    7.7080 C.2    13  GLY13       0.2309
     21  O        -11.5060   25.6000    8.3920 O.2    13  GLY13      -0.2863
     22  N         -7.0130   26.3760    5.6620 N.3    15  VAL15      -0.1245
     23  CA        -5.8040   25.6110    5.4070 C.3    15  VAL15       0.1561
     24  C         -4.6350   26.1410    6.2440 C.2    15  VAL15       0.2260
     25  O         -3.7810   25.3810    6.6830 O.2    15  VAL15      -0.2867
     26  CB        -5.4090   25.6460    3.9140 C.3    15  VAL15       0.0252
     27  CG1       -3.9990   25.1090    3.7400 C.3    15  VAL15       0.0019
     28  CG2       -6.3720   24.8330    3.0840 C.3    15  VAL15       0.0019
     29  N        -13.5120   31.7900   10.2590 N.3    22  ARG22      -0.1245
     30  CA       -14.5730   30.9170    9.7930 C.3    22  ARG22       0.1563
     31  C        -15.8000   31.0760   10.6750 C.2    22  ARG22       0.2260
     32  O        -16.8830   31.3670   10.1840 O.2    22  ARG22      -0.2867
     33  CB       -14.0950   29.4610    9.7340 C.3    22  ARG22       0.0307
     34  CG       -15.1550   28.4770    9.3110 C.3    22  ARG22       0.0489
     35  CD       -14.5970   27.0830    9.0880 C.3    22  ARG22       0.2205
     36  NE       -15.6350   26.0690    9.2730 N.pl3  22  ARG22      -0.0865
     37  CZ       -15.5020   24.7750    8.9930 C.cat  22  ARG22       0.5346
     38  NH1      -14.3680   24.3110    8.4870 N.pl3  22  ARG22       0.1354
     39  NH2      -16.5160   23.9430    9.2160 N.pl3  22  ARG22       0.1354
     40  N         -7.0250   23.0600   -1.2280 N.3    79  SER79      -0.1202
     41  CA        -6.5650   21.9750   -0.3810 C.3    79  SER79       0.2020
     42  C         -7.0890   20.6470   -0.9040 C.2    79  SER79       0.2619
     43  O         -7.7210   20.5900   -1.9620 O.2    79  SER79      -0.2717
     44  CB        -7.0000   22.1900    1.0700 C.3    79  SER79       0.2103
     45  OG        -8.3440   21.8130    1.2610 O.3    79  SER79      -0.2182
     46  N         -6.7980   19.5780   -0.1740 N.am   80  ARG80      -0.1965
     47  CA        -7.3400   18.2750   -0.5120 C.3    80  ARG80       0.1729
     48  C         -8.2750   17.8410    0.6020 C.2    80  ARG80       0.2616
     49  O         -8.6550   16.6710    0.7030 O.2    80  ARG80      -0.2715
     50  CB        -6.2330   17.2510   -0.7190 C.3    80  ARG80       0.0348
     51  CG        -5.2690   17.6050   -1.8160 C.3    80  ARG80       0.0492
     52  CD        -4.6330   16.3470   -2.3840 C.3    80  ARG80       0.2205
     53  NE        -3.6860   16.6300   -3.4550 N.pl3  80  ARG80      -0.0865
     54  CZ        -3.1060   15.6900   -4.1900 C.cat  80  ARG80       0.5346
     55  NH1       -3.3910   14.4140   -3.9640 N.pl3  80  ARG80       0.1354
     56  NH2       -2.2470   16.0260   -5.1480 N.pl3  80  ARG80       0.1354
     57  N         -8.6310   18.8070    1.4420 N.am   81  LYS81      -0.1963
     58  CA        -9.6430   18.6050    2.4710 C.3    81  LYS81       0.1728
     59  C        -10.9310   18.1760    1.7870 C.2    81  LYS81       0.2616
     60  O        -11.2360   18.6420    0.6980 O.2    81  LYS81      -0.2715
     61  CB        -9.8330   19.8780    3.3000 C.3    81  LYS81       0.0311
     62  CG        -8.5930   20.2830    4.0730 C.3    81  LYS81       0.0038
     63  CD        -8.7710   21.5890    4.8000 C.3    81  LYS81       0.0206
     64  CE        -7.5040   21.9630    5.5380 C.3    81  LYS81       0.1093
     65  NZ        -6.8790   20.7680    6.1850 N.3    81  LYS81      -0.1314
     66  N        -11.6690   17.2730    2.4150 N.am   82  VAL82      -0.1963
     67  CA       -12.7450   16.5750    1.7300 C.3    82  VAL82       0.1727
     68  C        -13.8640   17.4980    1.2050 C.2    82  VAL82       0.2616
     69  O        -14.4650   17.2170    0.1700 O.2    82  VAL82      -0.2715
     70  CB       -13.3070   15.4280    2.5990 C.3    82  VAL82       0.0290
     71  CG1      -14.0190   15.9830    3.8190 C.3    82  VAL82       0.0023
     72  CG2      -14.2330   14.5420    1.7810 C.3    82  VAL82       0.0023
     73  N        -14.1360   18.6020    1.8940 N.am   83  LYS83      -0.1977
     74  CA       -15.0990   19.5670    1.3860 C.3    83  LYS83       0.1596
     75  C        -14.5920   20.1920    0.1020 C.2    83  LYS83       0.2287
     76  O        -15.3650   20.4650   -0.8040 O.2    83  LYS83      -0.2864
     77  CB       -15.3710   20.6650    2.4070 C.3    83  LYS83       0.0298
     78  CG       -16.2860   20.2640    3.5400 C.3    83  LYS83       0.0038
     79  CD       -16.4950   21.4310    4.4780 C.3    83  LYS83       0.0206
     80  CE       -17.0000   20.9720    5.8240 C.3    83  LYS83       0.1093
     81  NZ       -17.3370   22.1080    6.7080 N.3    83  LYS83      -0.1314
     82  N        -12.4210   18.7530   -2.0930 N.3    85  LEU85      -0.1245
     83  CA       -12.5110   17.7120   -3.1040 C.3    85  LEU85       0.1561
     84  C        -13.9410   17.4730   -3.5600 C.2    85  LEU85       0.2260
     85  O        -14.1830   17.2300   -4.7360 O.2    85  LEU85      -0.2867
     86  CB       -11.9150   16.4110   -2.5830 C.3    85  LEU85       0.0270
     87  CG       -10.4510   16.4820   -2.1880 C.3    85  LEU85       0.0019
     88  CD1       -9.9490   15.1110   -1.8140 C.3    85  LEU85       0.0001
     89  CD2       -9.6540   17.0210   -3.3410 C.3    85  LEU85       0.0001
     90  N          0.6400   16.4140   -9.0340 N.3   123  HIS123     -0.1241
     91  CA         1.9210   15.7440   -9.0780 C.3   123  HIS123      0.1621
     92  C          2.1740   15.1740  -10.4810 C.2   123  HIS123      0.2264
     93  O          3.3070   15.1590  -10.9590 O.2   123  HIS123     -0.2867
     94  CB         2.0190   14.6870   -7.9810 C.3   123  HIS123      0.0745
     95  CG         2.0200   15.2650   -6.5980 C.ar  123  HIS123      0.0817
     96  ND1        0.9380   15.1690   -5.7470 N.ar  123  HIS123     -0.2268
     97  CD2        2.9670   15.9660   -5.9280 C.ar  123  HIS123      0.1154
     98  CE1        1.2250   15.7710   -4.6060 C.ar  123  HIS123      0.1986
     99  NE2        2.4480   16.2660   -4.6910 N.ar  123  HIS123     -0.2212
    100  N        -12.4930    5.8620    4.2640 N.3   169  LYS169     -0.1245
    101  CA       -11.6110    6.5850    3.3510 C.3   169  LYS169      0.1561
    102  C        -11.6790    5.9760    1.9530 C.2   169  LYS169      0.2260
    103  O        -11.5480    6.6730    0.9460 O.2   169  LYS169     -0.2867
    104  CB       -10.1660    6.5770    3.8630 C.3   169  LYS169      0.0271
    105  CG        -9.9720    7.2320    5.2130 C.3   169  LYS169      0.0035
    106  CD       -10.3960    8.6860    5.1700 C.3   169  LYS169      0.0206
    107  CE        -9.8570    9.4460    6.3700 C.3   169  LYS169      0.1093
    108  NZ       -10.1920    8.7150    7.6240 N.3   169  LYS169     -0.1314
    109  N        -13.4100    7.8120   -1.9420 N.3   173  HIS173     -0.1241
    110  CA       -12.9390    7.7890   -3.3120 C.3   173  HIS173      0.1621
    111  C        -14.0370    7.3660   -4.2700 C.2   173  HIS173      0.2264
    112  O        -14.1960    7.9510   -5.3430 O.2   173  HIS173     -0.2867
    113  CB       -11.7480    6.8560   -3.4310 C.3   173  HIS173      0.0745
    114  CG       -10.5470    7.3250   -2.6730 C.ar  173  HIS173      0.0817
    115  ND1       -9.9890    8.5730   -2.8630 N.ar  173  HIS173     -0.2268
    116  CD2       -9.7920    6.7110   -1.7310 C.ar  173  HIS173      0.1154
    117  CE1       -8.9400    8.7070   -2.0690 C.ar  173  HIS173      0.1986
    118  NE2       -8.8000    7.5930   -1.3730 N.ar  173  HIS173     -0.2212
    119  N         -5.0300    8.2910   -6.0490 N.3   209  GLU209     -0.1245
    120  CA        -4.3620    9.4950   -6.5140 C.3   209  GLU209      0.1567
    121  C         -4.8560    9.8780   -7.9020 C.2   209  GLU209      0.2260
    122  O         -5.0670   11.0570   -8.1910 O.2   209  GLU209     -0.2867
    123  CB        -2.8500    9.3000   -6.5030 C.3   209  GLU209      0.0388
    124  CG        -2.2350    9.7030   -5.1960 C.3   209  GLU209      0.1160
    125  CD        -2.4800   11.1660   -4.9020 C.2   209  GLU209      0.3649
    126  OE1       -2.1780   12.0010   -5.7840 O.co2 209  GLU209     -0.2457
    127  OE2       -2.9780   11.4800   -3.7970 O.co2 209  GLU209     -0.2457
    128  N         -7.8920   11.9820   -7.5880 N.3   212  VAL212     -0.1245
    129  CA        -7.5530   13.3450   -7.2200 C.3   212  VAL212      0.1561
    130  C         -7.0350   14.0920   -8.4390 C.2   212  VAL212      0.2260
    131  O         -7.4090   15.2370   -8.6810 O.2   212  VAL212     -0.2867
    132  CB        -6.5100   13.3820   -6.1080 C.3   212  VAL212      0.0252
    133  CG1       -6.3240   14.8050   -5.6200 C.3   212  VAL212      0.0019
    134  CG2       -6.9450   12.4740   -4.9680 C.3   212  VAL212      0.0019
@<TRIPOS>BOND
     1    93    92    2
     2    92    91    1
     3    91    90    1
     4    91    94    1
     5   131   130    2
     6   130   129    1
     7   122   121    2
     8    94    95    1
     9   121   120    1
    10   128   129    1
    11   129   132    1
    12    95    97   ar
    13    95    96   ar
    14   120   123    1
    15   120   119    1
    16   123   124    1
    17   132   133    1
    18   132   134    1
    19    97    99   ar
    20   126   125   ar
    21    96    98   ar
    22   112   111    2
    23   124   125    1
    24    56    54    1
    25   125   127   ar
    26    85    84    2
    27    99    98   ar
    28   111   110    1
    29    54    55    1
    30    54    53    2
    31    84    83    1
    32    53    52    1
    33   113   110    1
    34   113   114    1
    35    89    87    1
    36   110   109    1
    37    83    86    1
    38    83    82    1
    39   115   114   ar
    40   115   117   ar
    41   114   116   ar
    42    86    87    1
    43    52    51    1
    44    87    88    1
    45   117   118   ar
    46    43    42    2
    47    51    50    1
    48   116   118   ar
    49    40    41    1
    50    42    41    1
    51    42    46   am
    52    76    75    2
    53    50    47    1
    54    47    46    1
    55    47    48    1
    56    41    44    1
    57    75    74    1
    58    69    68    2
    59    48    49    2
    60    48    57   am
    61    60    59    2
    62   103   102    2
    63    44    45    1
    64    68    67    1
    65    68    73   am
    66    74    73    1
    67    74    77    1
    68    57    58    1
    69    67    66    1
    70    67    70    1
    71    72    70    1
    72    59    66   am
    73    59    58    1
    74   102   101    1
    75    77    78    1
    76    58    61    1
    77    70    71    1
    78    28    26    1
    79    16    17    1
    80    16    13    1
    81    61    62    1
    82   101   104    1
    83   101   100    1
    84    78    79    1
    85    27    26    1
    86   104   105    1
    87    26    23    1
    88    62    63    1
    89    12    13    1
    90    12     3   am
    91     1     2    1
    92    79    80    1
    93    13    14    1
    94     2     3    1
    95     2     5    1
    96    63    64    1
    97     3     4    2
    98   106   105    1
    99   106   107    1
   100    15    14    2
   101    14    18   am
   102    11    10   ar
   103    11     9   ar
   104    10     8   ar
   105    23    22    1
   106    23    24    1
   107     9     7   ar
   108    64    65    1
   109     8     6   ar
   110     7     6   ar
   111     6     5    1
   112    80    81    1
   113    18    19    1
   114    24    25    2
   115   107   108    1
   116    19    20    1
   117    20    21    2
   118    38    37    1
   119    37    39    1
   120    37    36    2
   121    35    36    1
   122    35    34    1
   123    34    33    1
   124    33    30    1
   125    30    29    1
   126    30    31    1
   127    32    31    2
