@<TRIPOS>MOLECULE
tmp/2vxjJ00.pdb
 93 89 0 0 0
SMALL
GASTEIGER

@<TRIPOS>ATOM
      1  N         34.2820   32.3560  133.8250 N.3    36  TYR36      -0.1227
      2  CA        34.5990   32.8520  135.1460 C.3    36  TYR36       0.1736
      3  C         33.8410   32.1210  136.2780 C.2    36  TYR36       0.2596
      4  O         33.9970   32.4650  137.4370 O.2    36  TYR36      -0.2718
      5  CB        34.3260   34.3570  135.2060 C.3    36  TYR36       0.0548
      6  CG        32.9130   34.8240  134.8530 C.ar   36  TYR36      -0.0200
      7  CD1       32.5330   35.0230  133.5190 C.ar   36  TYR36      -0.0009
      8  CD2       31.9890   35.1270  135.8420 C.ar   36  TYR36      -0.0009
      9  CE1       31.2940   35.4750  133.1820 C.ar   36  TYR36       0.0417
     10  CE2       30.7490   35.6010  135.5300 C.ar   36  TYR36       0.0417
     11  CZ        30.3770   35.7550  134.1930 C.ar   36  TYR36       0.1957
     12  OH        29.1240   36.2090  133.8590 O.3    36  TYR36      -0.2866
     13  N         33.0380   31.1190  135.9250 N.am   37  GLY37      -0.1943
     14  CA        32.2360   30.3690  136.8980 C.3    37  GLY37       0.1998
     15  C         30.9830   29.7070  136.3240 C.2    37  GLY37       0.2480
     16  O         30.7770   28.5210  136.5280 O.2    37  GLY37      -0.2729
     17  N         30.1240   30.4820  135.6480 N.am   38  PRO38      -0.2726
     18  CA        28.9150   29.9050  135.0650 C.3    38  PRO38       0.1402
     19  C         29.1550   28.7380  134.0850 C.2    38  PRO38       0.2269
     20  O         30.2700   28.5400  133.5810 O.2    38  PRO38      -0.2865
     21  CB        28.2540   31.1070  134.3740 C.3    38  PRO38       0.0296
     22  CG        28.7140   32.2760  135.1200 C.3    38  PRO38       0.0237
     23  CD        30.1540   31.9420  135.4380 C.3    38  PRO38       0.0939
     24  N         27.8610   41.2200  132.6360 N.3    50  HIS50      -0.1227
     25  CA        28.2890   41.0030  134.0250 C.3    50  HIS50       0.1737
     26  C         28.8790   42.2560  134.6630 C.2    50  HIS50       0.2438
     27  O         29.7200   42.9210  134.0670 O.2    50  HIS50      -0.2733
     28  CB        29.3030   39.8800  134.0790 C.3    50  HIS50       0.0758
     29  CG        29.4600   39.2870  135.4460 C.ar   50  HIS50       0.0818
     30  ND1       28.4650   38.5510  136.0550 N.ar   50  HIS50      -0.2268
     31  CD2       30.4980   39.3000  136.3080 C.ar   50  HIS50       0.1154
     32  CE1       28.8900   38.1350  137.2350 C.ar   50  HIS50       0.1986
     33  NE2       30.1270   38.5670  137.4080 N.ar   50  HIS50      -0.2212
     34  N         28.4490   42.5990  135.9060 N.am   51  PRO51      -0.2729
     35  CA        29.0300   43.7790  136.5020 C.3    51  PRO51       0.1401
     36  C         30.5010   43.5740  136.9200 C.2    51  PRO51       0.2269
     37  O         30.9480   42.4410  137.1440 O.2    51  PRO51      -0.2865
     38  CB        28.1430   44.0100  137.7350 C.3    51  PRO51       0.0296
     39  CG        27.7450   42.6710  138.1340 C.3    51  PRO51       0.0237
     40  CD        27.4880   41.9550  136.8280 C.3    51  PRO51       0.0939
     41  N         33.0190   43.6480  139.6510 N.3    53  GLN53      -0.1245
     42  CA        33.0760   43.5090  141.0950 C.3    53  GLN53       0.1566
     43  C         34.4810   43.5510  141.6970 C.2    53  GLN53       0.2260
     44  O         34.7300   42.9320  142.7380 O.2    53  GLN53      -0.2867
     45  CB        32.4110   42.1980  141.4760 C.3    53  GLN53       0.0367
     46  CG        30.9070   42.2120  141.2300 C.3    53  GLN53       0.0905
     47  CD        30.2410   40.9160  141.6100 C.2    53  GLN53       0.2608
     48  OE1       30.7330   39.8290  141.3130 O.2    53  GLN53      -0.2717
     49  NE2       29.0710   41.0270  142.2410 N.am   53  GLN53      -0.0878
     50  N         37.4150   43.8080  139.1680 N.3    55  LEU55      -0.1245
     51  CA        38.1830   43.1450  138.1280 C.3    55  LEU55       0.1561
     52  C         39.6530   43.6360  138.1030 C.2    55  LEU55       0.2260
     53  O         39.9410   44.7880  138.4010 O.2    55  LEU55      -0.2867
     54  CB        37.4960   43.3130  136.7400 C.3    55  LEU55       0.0270
     55  CG        36.1230   42.6370  136.5850 C.3    55  LEU55       0.0019
     56  CD1       35.3970   43.2200  135.3360 C.3    55  LEU55       0.0001
     57  CD2       36.2280   41.1310  136.5030 C.3    55  LEU55       0.0001
     58  N         34.3940   41.2170  132.4630 N.3    62  CYS62      -0.1235
     59  CA        34.6820   39.9820  133.1390 C.3    62  CYS62       0.1677
     60  C         34.7620   38.8800  132.1010 C.2    62  CYS62       0.2270
     61  O         33.8450   38.7260  131.2920 O.2    62  CYS62      -0.2867
     62  CB        33.5890   39.6490  134.1710 C.3    62  CYS62       0.0956
     63  SG        34.0250   38.2360  135.1780 S.3    62  CYS62      -0.0801
     64  N         39.2760   38.6330  135.7770 N.3    99  ASP99      -0.1225
     65  CA        38.3690   38.1710  136.8610 C.3    99  ASP99       0.1805
     66  C         38.7490   38.9540  138.1350 C.2    99  ASP99       0.2597
     67  O         39.6650   39.8000  138.1140 O.2    99  ASP99      -0.2718
     68  CB        38.4920   36.6330  137.0750 C.3    99  ASP99       0.1424
     69  CG        37.2100   35.9720  137.6780 C.2    99  ASP99       0.3668
     70  OD1       36.2930   36.6670  138.1350 O.co2  99  ASP99      -0.2456
     71  OD2       37.1650   34.7310  137.6910 O.co2  99  ASP99      -0.2456
     72  N         38.0080   38.7030  139.2190 N.am  100  VAL100     -0.1980
     73  CA        38.2710   39.3390  140.5050 C.3   100  VAL100      0.1595
     74  C         39.3730   38.5080  141.1940 C.2   100  VAL100      0.2287
     75  O         39.3260   37.2830  141.1700 O.2   100  VAL100     -0.2864
     76  CB        36.9600   39.4080  141.3760 C.3   100  VAL100      0.0276
     77  CG1       37.2440   39.9730  142.7980 C.3   100  VAL100      0.0022
     78  CG2       35.9210   40.2480  140.6470 C.3   100  VAL100      0.0022
     79  N         39.1800   34.7750  142.9770 N.3   103  THR103     -0.1218
     80  CA        37.9990   34.0750  142.4950 C.3   103  THR103      0.1862
     81  C         38.2690   33.3040  141.2340 C.2   103  THR103      0.2287
     82  O         37.3330   32.9960  140.4880 O.2   103  THR103     -0.2866
     83  CB        36.8070   35.0210  142.2300 C.3   103  THR103      0.1770
     84  OG1       37.0400   35.8290  141.0710 O.3   103  THR103     -0.2211
     85  CG2       36.5430   35.9260  143.4370 C.3   103  THR103      0.0375
     86  N         37.2410   28.7700  140.3350 N.3   106  ASN106     -0.1240
     87  CA        36.0850   28.1410  139.6750 C.3   106  ASN106      0.1653
     88  C         36.0070   28.3910  138.1630 C.2   106  ASN106      0.2266
     89  O         35.0010   28.0750  137.5240 O.2   106  ASN106     -0.2867
     90  CB        34.7930   28.5880  140.3690 C.3   106  ASN106      0.1155
     91  CG        34.4560   30.0180  140.1260 C.2   106  ASN106      0.2627
     92  OD1       35.3310   30.8520  139.8020 O.2   106  ASN106     -0.2716
     93  ND2       33.1730   30.3510  140.2990 N.am  106  ASN106     -0.0877
@<TRIPOS>BOND
     1    61    60    2
     2    60    59    1
     3    58    59    1
     4    24    25    1
     5    59    62    1
     6     9     7   ar
     7     9    11   ar
     8     7     6   ar
     9    20    19    2
    10     1     2    1
    11    12    11    1
    12    25    28    1
    13    25    26    1
    14    27    26    2
    15    28    29    1
    16    19    18    1
    17    62    63    1
    18    11    10   ar
    19    21    18    1
    20    21    22    1
    21    26    34   am
    22     6     5    1
    23     6     8   ar
    24    18    17    1
    25    22    23    1
    26     2     5    1
    27     2     3    1
    28    56    55    1
    29    23    17    1
    30    29    30   ar
    31    29    31   ar
    32    10     8   ar
    33    17    15   am
    34    64    65    1
    35    34    35    1
    36    34    40    1
    37    13     3   am
    38    13    14    1
    39    30    32   ar
    40     3     4    2
    41    31    33   ar
    42    15    16    2
    43    15    14    1
    44    35    36    1
    45    35    38    1
    46    57    55    1
    47    55    54    1
    48    54    51    1
    49    40    39    1
    50    65    68    1
    51    65    66    1
    52    36    37    2
    53    68    69    1
    54    32    33   ar
    55    89    88    2
    56    69    71   ar
    57    69    70   ar
    58    38    39    1
    59    52    51    1
    60    52    53    2
    61    67    66    2
    62    51    50    1
    63    66    72   am
    64    88    87    1
    65    72    73    1
    66    41    42    1
    67    87    86    1
    68    87    90    1
    69    92    91    2
    70    91    93   am
    71    91    90    1
    72    82    81    2
    73    73    74    1
    74    73    76    1
    75    78    76    1
    76    84    83    1
    77    42    45    1
    78    42    43    1
    79    75    74    2
    80    46    45    1
    81    46    47    1
    82    81    80    1
    83    48    47    2
    84    76    77    1
    85    47    49   am
    86    43    44    2
    87    83    80    1
    88    83    85    1
    89    80    79    1
