@<TRIPOS>MOLECULE
tmp/2vxjN00.pdb
 93 89 0 0 0
SMALL
GASTEIGER

@<TRIPOS>ATOM
      1  N         87.4000  -24.1120   23.3660 N.3    36  TYR36      -0.1227
      2  CA        87.0140  -23.6460   22.0510 C.3    36  TYR36       0.1736
      3  C         87.8680  -24.3000   20.9480 C.2    36  TYR36       0.2596
      4  O         87.8260  -23.8390   19.8050 O.2    36  TYR36      -0.2718
      5  CB        87.1630  -22.1260   21.9750 C.3    36  TYR36       0.0548
      6  CG        88.5600  -21.6080   22.2660 C.ar   36  TYR36      -0.0200
      7  CD1       89.5050  -21.4280   21.2380 C.ar   36  TYR36      -0.0009
      8  CD2       88.9480  -21.2850   23.5850 C.ar   36  TYR36      -0.0009
      9  CE1       90.7950  -20.9530   21.5100 C.ar   36  TYR36       0.0417
     10  CE2       90.2200  -20.8070   23.8680 C.ar   36  TYR36       0.0417
     11  CZ        91.1440  -20.6490   22.8240 C.ar   36  TYR36       0.1957
     12  OH        92.4000  -20.1740   23.0960 O.3    36  TYR36      -0.2866
     13  N         88.6140  -25.3620   21.2680 N.am   37  GLY37      -0.1943
     14  CA        89.5270  -26.0000   20.2850 C.3    37  GLY37       0.1998
     15  C         90.7390  -26.6870   20.9110 C.2    37  GLY37       0.2480
     16  O         90.8590  -27.8890   20.8190 O.2    37  GLY37      -0.2729
     17  N         91.6300  -25.9320   21.5690 N.am   38  PRO38      -0.2726
     18  CA        92.8340  -26.4790   22.1720 C.3    38  PRO38       0.1402
     19  C         92.6200  -27.5970   23.1590 C.2    38  PRO38       0.2269
     20  O         91.5040  -27.8010   23.6450 O.2    38  PRO38      -0.2865
     21  CB        93.4300  -25.2650   22.8660 C.3    38  PRO38       0.0296
     22  CG        93.0030  -24.1520   22.0430 C.3    38  PRO38       0.0237
     23  CD        91.6030  -24.4660   21.7350 C.3    38  PRO38       0.0939
     24  N         93.6030  -15.1500   24.3350 N.3    50  HIS50      -0.1227
     25  CA        93.1790  -15.3970   22.9600 C.3    50  HIS50       0.1737
     26  C         92.6130  -14.1550   22.2900 C.2    50  HIS50       0.2438
     27  O         91.7790  -13.4390   22.8830 O.2    50  HIS50      -0.2733
     28  CB        92.1420  -16.4890   22.9190 C.3    50  HIS50       0.0758
     29  CG        92.0170  -17.1170   21.5760 C.ar   50  HIS50       0.0818
     30  ND1       93.0800  -17.7470   20.9640 N.ar   50  HIS50      -0.2268
     31  CD2       90.9890  -17.1530   20.6930 C.ar   50  HIS50       0.1154
     32  CE1       92.6990  -18.1830   19.7760 C.ar   50  HIS50       0.1986
     33  NE2       91.4310  -17.8450   19.5910 N.ar   50  HIS50      -0.2212
     34  N         93.0320  -13.8870   21.0260 N.am   51  PRO51      -0.2729
     35  CA        92.4740  -12.7030   20.3490 C.3    51  PRO51       0.1401
     36  C         90.9710  -12.9100   20.0370 C.2    51  PRO51       0.2269
     37  O         90.5170  -14.0520   19.9430 O.2    51  PRO51      -0.2865
     38  CB        93.3010  -12.6260   19.0610 C.3    51  PRO51       0.0296
     39  CG        93.6020  -14.0830   18.7610 C.3    51  PRO51       0.0237
     40  CD        93.9330  -14.6420   20.1370 C.3    51  PRO51       0.0939
     41  N         88.5050  -12.9720   17.3190 N.3    53  GLN53      -0.1245
     42  CA        88.4540  -13.1760   15.8730 C.3    53  GLN53       0.1566
     43  C         87.0240  -13.1890   15.3200 C.2    53  GLN53       0.2260
     44  O         86.7730  -13.7750   14.2750 O.2    53  GLN53      -0.2867
     45  CB        89.1600  -14.4790   15.5320 C.3    53  GLN53       0.0367
     46  CG        90.6340  -14.4520   15.9620 C.3    53  GLN53       0.0905
     47  CD        91.3800  -15.7020   15.5740 C.2    53  GLN53       0.2608
     48  OE1       90.8990  -16.8200   15.7790 O.2    53  GLN53      -0.2717
     49  NE2       92.5650  -15.5240   14.9980 N.am   53  GLN53      -0.0878
     50  N         84.0390  -13.0850   17.8400 N.3    55  LEU55      -0.1245
     51  CA        83.2500  -13.7720   18.8390 C.3    55  LEU55       0.1561
     52  C         81.8250  -13.2770   18.8290 C.2    55  LEU55       0.2260
     53  O         81.5550  -12.1000   18.5310 O.2    55  LEU55      -0.2867
     54  CB        83.8600  -13.5240   20.2180 C.3    55  LEU55       0.0270
     55  CG        85.2790  -14.1030   20.4210 C.3    55  LEU55       0.0019
     56  CD1       85.8890  -13.6030   21.7260 C.3    55  LEU55       0.0001
     57  CD2       85.2960  -15.6410   20.3610 C.3    55  LEU55       0.0001
     58  N         87.0260  -15.2570   24.5100 N.3    62  CYS62      -0.1235
     59  CA        86.7900  -16.5460   23.9030 C.3    62  CYS62       0.1677
     60  C         86.8090  -17.6060   24.9870 C.2    62  CYS62       0.2270
     61  O         87.7500  -17.6790   25.8020 O.2    62  CYS62      -0.2867
     62  CB        87.8540  -16.8560   22.8310 C.3    62  CYS62       0.0956
     63  SG        87.4520  -18.2710   21.8280 S.3    62  CYS62      -0.0801
     64  N         82.2450  -18.1220   21.2720 N.3    99  ASP99      -0.1225
     65  CA        83.1890  -18.5330   20.2170 C.3    99  ASP99       0.1805
     66  C         82.7870  -17.8320   18.9340 C.2    99  ASP99       0.2597
     67  O         81.8410  -17.0320   18.9230 O.2    99  ASP99      -0.2718
     68  CB        83.1630  -20.0720   20.0470 C.3    99  ASP99       0.1424
     69  CG        84.4460  -20.6420   19.4610 C.2    99  ASP99       0.3668
     70  OD1       85.2790  -19.8980   18.9360 O.co2  99  ASP99      -0.2456
     71  OD2       84.6150  -21.8680   19.5350 O.co2  99  ASP99      -0.2456
     72  N         83.5280  -18.0910   17.8550 N.am  100  VAL100     -0.1980
     73  CA        83.2780  -17.4520   16.5610 C.3   100  VAL100      0.1595
     74  C         82.2130  -18.2850   15.8370 C.2   100  VAL100      0.2287
     75  O         82.2640  -19.5260   15.8680 O.2   100  VAL100     -0.2864
     76  CB        84.6410  -17.3310   15.7570 C.3   100  VAL100      0.0276
     77  CG1       84.4600  -16.6670   14.3830 C.3   100  VAL100      0.0022
     78  CG2       85.6970  -16.5590   16.5820 C.3   100  VAL100      0.0022
     79  N         82.5270  -22.0130   14.0940 N.3   103  THR103     -0.1218
     80  CA        83.7330  -22.6420   14.6380 C.3   103  THR103      0.1862
     81  C         83.4400  -23.4760   15.8860 C.2   103  THR103      0.2287
     82  O         84.3780  -23.8740   16.5610 O.2   103  THR103     -0.2866
     83  CB        84.8670  -21.5740   14.9670 C.3   103  THR103      0.1770
     84  OG1       84.5700  -20.8800   16.1880 O.3   103  THR103     -0.2211
     85  CG2       85.0020  -20.5160   13.8810 C.3   103  THR103      0.0375
     86  N         84.6060  -27.9310   16.7900 N.3   106  ASN106     -0.1240
     87  CA        85.7370  -28.5110   17.5490 C.3   106  ASN106      0.1653
     88  C         85.7800  -28.1670   19.0600 C.2   106  ASN106      0.2266
     89  O         86.8350  -28.3210   19.7170 O.2   106  ASN106     -0.2867
     90  CB        87.0550  -28.0680   16.9050 C.3   106  ASN106      0.1155
     91  CG        87.3040  -26.5640   17.0420 C.2   106  ASN106      0.2627
     92  OD1       86.3950  -25.7940   17.3250 O.2   106  ASN106     -0.2716
     93  ND2       88.5350  -26.1480   16.8120 N.am  106  ASN106     -0.0877
@<TRIPOS>BOND
     1    85    83    1
     2    79    80    1
     3    44    43    2
     4    77    76    1
     5    80    83    1
     6    80    81    1
     7    83    84    1
     8    49    47   am
     9    43    42    1
    10    45    42    1
    11    45    46    1
    12    47    48    2
    13    47    46    1
    14    76    73    1
    15    76    78    1
    16    74    75    2
    17    74    73    1
    18    42    41    1
    19    81    82    2
    20    73    72    1
    21    86    87    1
    22    93    91   am
    23    90    91    1
    24    90    87    1
    25    91    92    2
    26    87    88    1
    27    50    51    1
    28    72    66   am
    29    53    52    2
    30    39    38    1
    31    39    40    1
    32    52    51    1
    33    51    54    1
    34    67    66    2
    35    66    65    1
    36    70    69   ar
    37    88    89    2
    38    38    35    1
    39    69    71   ar
    40    69    68    1
    41    33    32   ar
    42    33    31   ar
    43    32    30   ar
    44     4     3    2
    45    37    36    2
    46    36    35    1
    47    68    65    1
    48    40    34    1
    49    65    64    1
    50    54    55    1
    51    14    15    1
    52    14    13    1
    53    35    34    1
    54    57    55    1
    55    55    56    1
    56    31    29   ar
    57    16    15    2
    58    15    17   am
    59     3    13   am
    60     3     2    1
    61    30    29   ar
    62    34    26   am
    63     7     9   ar
    64     7     6   ar
    65     9    11   ar
    66    17    23    1
    67    17    18    1
    68    29    28    1
    69    23    22    1
    70    63    62    1
    71     5     2    1
    72     5     6    1
    73    22    21    1
    74     2     1    1
    75    18    21    1
    76    18    19    1
    77     6     8   ar
    78    26    27    2
    79    26    25    1
    80    11    12    1
    81    11    10   ar
    82    62    59    1
    83    28    25    1
    84    25    24    1
    85    19    20    2
    86     8    10   ar
    87    59    58    1
    88    59    60    1
    89    60    61    2
