@<TRIPOS>MOLECULE
tmp/2vxkA00.pdb
 110 106 0 0 0
SMALL
GASTEIGER

@<TRIPOS>ATOM
      1  N        -32.7860  -11.2290    3.8070 N.3    44  LEU44      -0.1231
      2  CA       -33.1420  -10.8240    2.4690 C.3    44  LEU44       0.1693
      3  C        -34.6390  -10.6340    2.4320 C.2    44  LEU44       0.2593
      4  O        -35.1190   -9.6050    2.0490 O.2    44  LEU44      -0.2718
      5  CB       -32.6500  -11.8420    1.4120 C.3    44  LEU44       0.0284
      6  CG       -33.1770  -11.6800    0.0080 C.3    44  LEU44       0.0019
      7  CD1      -32.8670  -10.3340   -0.6510 C.3    44  LEU44       0.0001
      8  CD2      -32.9150  -12.8400   -0.9140 C.3    44  LEU44       0.0001
      9  N        -35.3630  -11.6250    2.8980 N.am   45  THR45      -0.1939
     10  CA       -36.8110  -11.5700    2.8280 C.3    45  THR45       0.2028
     11  C        -37.4910  -12.5650    3.7550 C.2    45  THR45       0.2642
     12  O        -36.8610  -13.1690    4.5850 O.2    45  THR45      -0.2714
     13  CB       -37.2810  -11.8110    1.3590 C.3    45  THR45       0.1808
     14  OG1      -38.6470  -11.4360    1.2040 O.3    45  THR45      -0.2208
     15  CG2      -37.0850  -13.2720    1.0120 C.3    45  THR45       0.0379
     16  N        -38.7990  -12.7140    3.5920 N.am   46  THR46      -0.1950
     17  CA       -39.5860  -13.6360    4.4220 C.3    46  THR46       0.1897
     18  C        -39.2500  -15.0720    4.0350 C.2    46  THR46       0.2313
     19  O        -39.1880  -15.4090    2.8400 O.2    46  THR46      -0.2863
     20  CB       -41.1330  -13.3870    4.2990 C.3    46  THR46       0.1794
     21  OG1      -41.8560  -14.4330    4.9690 O.3    46  THR46      -0.2208
     22  CG2      -41.5800  -13.3230    2.8370 C.3    46  THR46       0.0378
     23  N        -29.0260  -15.1040  -11.1320 N.3   103  ILE103     -0.1231
     24  CA       -28.5670  -15.0180   -9.7440 C.3   103  ILE103      0.1692
     25  C        -29.7480  -14.7020   -8.8380 C.2   103  ILE103      0.2592
     26  O        -30.5840  -13.8090   -9.1380 O.2   103  ILE103     -0.2718
     27  CB       -27.3950  -14.0260   -9.6130 C.3   103  ILE103      0.0266
     28  CG1      -26.1090  -14.7350  -10.0850 C.3   103  ILE103      0.0019
     29  CG2      -27.2840  -13.4740   -8.1660 C.3   103  ILE103      0.0020
     30  CD1      -24.8730  -13.8320  -10.1440 C.3   103  ILE103      0.0001
     31  N        -29.8480  -15.4440   -7.7270 N.am  104  GLU104     -0.1966
     32  CA       -31.0170  -15.3160   -6.8670 C.3   104  GLU104      0.1733
     33  C        -30.6050  -15.3840   -5.4240 C.2   104  GLU104      0.2616
     34  O        -29.5630  -15.9780   -5.1190 O.2   104  GLU104     -0.2715
     35  CB       -32.0070  -16.4720   -7.1060 C.3   104  GLU104      0.0429
     36  CG       -32.3880  -16.6780   -8.5820 C.3   104  GLU104      0.1163
     37  CD       -33.3950  -15.6720   -9.0580 C.2   104  GLU104      0.3649
     38  OE1      -33.9330  -14.8790   -8.2560 O.co2 104  GLU104     -0.2457
     39  OE2      -33.6920  -15.7130  -10.2750 O.co2 104  GLU104     -0.2457
     40  N        -31.4310  -14.7900   -4.5550 N.am  105  ASP105     -0.1957
     41  CA       -31.3570  -15.0700   -3.0990 C.3   105  ASP105      0.1840
     42  C        -29.9840  -14.8330   -2.4970 C.2   105  ASP105      0.2621
     43  O        -29.4170  -15.7000   -1.8120 O.2   105  ASP105     -0.2715
     44  CB       -31.8690  -16.4970   -2.8360 C.3   105  ASP105      0.1450
     45  CG       -33.3380  -16.6370   -3.2130 C.2   105  ASP105      0.3671
     46  OD1      -34.0420  -15.6060   -3.1860 O.co2 105  ASP105     -0.2456
     47  OD2      -33.7730  -17.7390   -3.6010 O.co2 105  ASP105     -0.2456
     48  N        -29.4570  -13.6380   -2.7540 N.am  106  ILE106     -0.1977
     49  CA       -28.1430  -13.2230   -2.2540 C.3   106  ILE106      0.1596
     50  C        -28.3020  -12.6190   -0.8640 C.2   106  ILE106      0.2287
     51  O        -29.0300  -11.6330   -0.6830 O.2   106  ILE106     -0.2864
     52  CB       -27.5170  -12.1450   -3.2070 C.3   106  ILE106      0.0276
     53  CG1      -27.3590  -12.6870   -4.6260 C.3   106  ILE106      0.0022
     54  CG2      -26.1740  -11.6160   -2.6200 C.3   106  ILE106      0.0022
     55  CD1      -26.3770  -13.9310   -4.7380 C.3   106  ILE106      0.0001
     56  N        -29.8080  -10.6280  -13.0920 N.3   139  LEU139     -0.1231
     57  CA       -30.4340  -10.6360  -11.7850 C.3   139  LEU139      0.1693
     58  C        -31.2870   -9.3680  -11.6820 C.2   139  LEU139      0.2592
     59  O        -31.1250   -8.4400  -12.4680 O.2   139  LEU139     -0.2718
     60  CB       -29.3750  -10.6640  -10.6540 C.3   139  LEU139      0.0284
     61  CG       -28.3350   -9.5340  -10.6070 C.3   139  LEU139      0.0019
     62  CD1      -28.7990   -8.3390   -9.7000 C.3   139  LEU139      0.0001
     63  CD2      -27.0110  -10.1120  -10.0920 C.3   139  LEU139      0.0001
     64  N        -32.1510   -9.3400  -10.6790 N.am  140  ASP140     -0.1960
     65  CA       -32.9140   -8.1320  -10.3570 C.3   140  ASP140      0.1840
     66  C        -32.4620   -7.5780   -9.0100 C.2   140  ASP140      0.2622
     67  O        -32.1420   -8.3360   -8.0790 O.2   140  ASP140     -0.2715
     68  CB       -34.3900   -8.4470  -10.3450 C.3   140  ASP140      0.1450
     69  CG       -34.8870   -8.9040  -11.7040 C.2   140  ASP140      0.3671
     70  OD1      -34.6470   -8.2130  -12.7100 O.co2 140  ASP140     -0.2456
     71  OD2      -35.5250   -9.9550  -11.7610 O.co2 140  ASP140     -0.2456
     72  N        -32.3890   -6.2530   -8.9420 N.am  141  CYS141     -0.1968
     73  CA       -32.0830   -5.5780   -7.6860 C.3   141  CYS141      0.1712
     74  C        -32.9790   -4.3550   -7.4660 C.2   141  CYS141      0.2296
     75  O        -33.8300   -3.9910   -8.2930 O.2   141  CYS141     -0.2864
     76  CB       -30.6140   -5.1850   -7.6870 C.3   141  CYS141      0.0983
     77  SG       -30.2040   -3.9190   -8.8640 S.3   141  CYS141     -0.0798
     78  N        -24.2950   -4.1580   -6.9520 N.3   149  TYR149     -0.1241
     79  CA       -24.2160   -4.9420   -8.1950 C.3   149  TYR149      0.1605
     80  C        -23.2810   -4.2900   -9.2360 C.2   149  TYR149      0.2264
     81  O        -22.6060   -5.0060   -9.9850 O.2   149  TYR149     -0.2867
     82  CB       -25.6240   -5.2310   -8.7360 C.3   149  TYR149      0.0534
     83  CG       -26.2810   -6.2490   -7.8260 C.ar  149  TYR149     -0.0201
     84  CD1      -27.2520   -5.8610   -6.8940 C.ar  149  TYR149     -0.0009
     85  CD2      -25.8180   -7.5720   -7.8050 C.ar  149  TYR149     -0.0009
     86  CE1      -27.7910   -6.7940   -5.9720 C.ar  149  TYR149      0.0417
     87  CE2      -26.3460   -8.5160   -6.8900 C.ar  149  TYR149      0.0417
     88  CZ       -27.3350   -8.1310   -6.0140 C.ar  149  TYR149      0.1957
     89  OH       -27.8500   -9.0910   -5.1370 O.3   149  TYR149     -0.2866
     90  N        -37.3080   -4.6450  -13.9310 N.3   160  GLU160     -0.1245
     91  CA       -38.0270   -5.7910  -13.3960 C.3   160  GLU160      0.1567
     92  C        -39.4860   -5.4050  -13.1850 C.2   160  GLU160      0.2260
     93  O        -39.8280   -4.3670  -12.5880 O.2   160  GLU160     -0.2867
     94  CB       -37.3850   -6.3090  -12.0910 C.3   160  GLU160      0.0388
     95  CG       -38.1970   -7.4620  -11.4690 C.3   160  GLU160      0.1160
     96  CD       -37.8940   -7.6980   -9.9760 C.2   160  GLU160      0.3649
     97  OE1      -37.2000   -6.8670   -9.3420 O.co2 160  GLU160     -0.2457
     98  OE2      -38.4090   -8.7030   -9.4200 O.co2 160  GLU160     -0.2457
     99  N        -47.7960   -9.8650   -8.2030 N.3   164  TYR164     -0.1241
    100  CA       -47.9410  -10.6770   -6.9680 C.3   164  TYR164      0.1605
    101  C        -49.3880  -11.2250   -6.8370 C.2   164  TYR164      0.2264
    102  O        -50.3520  -10.5440   -7.2110 O.2   164  TYR164     -0.2867
    103  CB       -47.5880   -9.8250   -5.7240 C.3   164  TYR164      0.0534
    104  CG       -46.1250   -9.6280   -5.4630 C.ar  164  TYR164     -0.0201
    105  CD1      -45.4690  -10.4090   -4.5180 C.ar  164  TYR164     -0.0009
    106  CD2      -45.3970   -8.6380   -6.1160 C.ar  164  TYR164     -0.0009
    107  CE1      -44.1180  -10.2540   -4.2530 C.ar  164  TYR164      0.0417
    108  CE2      -44.0300   -8.4630   -5.8570 C.ar  164  TYR164      0.0417
    109  CZ       -43.3970   -9.2790   -4.9220 C.ar  164  TYR164      0.1957
    110  OH       -42.0560   -9.1490   -4.6470 O.3   164  TYR164     -0.2866
@<TRIPOS>BOND
     1    90    91    1
     2    91    92    1
     3    91    94    1
     4    92    93    2
     5    56    57    1
     6    70    69   ar
     7    59    58    2
     8    94    95    1
     9    57    58    1
    10    57    60    1
    11    71    69   ar
    12    69    68    1
    13    58    64   am
    14    95    96    1
    15    23    24    1
    16    64    65    1
    17    60    61    1
    18    61    63    1
    19    61    62    1
    20    65    68    1
    21    65    66    1
    22    39    37   ar
    23    30    28    1
    24    28    27    1
    25    81    80    2
    26    96    98   ar
    27    96    97   ar
    28    24    27    1
    29    24    25    1
    30    27    29    1
    31    80    79    1
    32    26    25    2
    33    37    36    1
    34    37    38   ar
    35    66    72   am
    36    66    67    2
    37    72    73    1
    38    77    76    1
    39    25    31   am
    40    82    79    1
    41    82    83    1
    42    36    35    1
    43    75    74    2
    44    99   100    1
    45    79    78    1
    46    83    85   ar
    47    83    84   ar
    48    85    87   ar
    49    31    32    1
    50    76    73    1
    51    73    74    1
    52   102   101    2
    53    35    32    1
    54   100   101    1
    55   100   103    1
    56    84    86   ar
    57    87    88   ar
    58    32    33    1
    59   106   108   ar
    60   106   104   ar
    61    88    86   ar
    62    88    89    1
    63   108   109   ar
    64   103   104    1
    65   104   105   ar
    66    33    34    2
    67    33    40   am
    68   109   110    1
    69   109   107   ar
    70    55    53    1
    71    53    52    1
    72    40    41    1
    73   105   107   ar
    74    47    45   ar
    75    45    46   ar
    76    45    44    1
    77    52    54    1
    78    52    49    1
    79    41    44    1
    80    41    42    1
    81    48    42   am
    82    48    49    1
    83    42    43    2
    84    49    50    1
    85     8     6    1
    86    50    51    2
    87     7     6    1
    88     6     5    1
    89    15    13    1
    90    14    13    1
    91    13    10    1
    92     5     2    1
    93     4     3    2
    94     3     2    1
    95     3     9   am
    96     2     1    1
    97    10     9    1
    98    10    11    1
    99    22    20    1
   100    19    18    2
   101    16    11   am
   102    16    17    1
   103    11    12    2
   104    18    17    1
   105    20    17    1
   106    20    21    1
