@<TRIPOS>MOLECULE
tmp/2vxkA01.pdb
 159 154 0 0 0
SMALL
GASTEIGER

@<TRIPOS>ATOM
      1  N        -32.2400  -12.2620    6.2120 N.3    43  VAL43      -0.1231
      2  CA       -31.8580  -10.8570    6.0220 C.3    43  VAL43       0.1692
      3  C        -32.4330  -10.3370    4.7020 C.2    43  VAL43       0.2591
      4  O        -32.6980   -9.1460    4.5730 O.2    43  VAL43      -0.2718
      5  CB       -30.3350  -10.6130    6.0650 C.3    43  VAL43       0.0266
      6  CG1      -29.7490  -11.1460    7.3570 C.3    43  VAL43       0.0020
      7  CG2      -29.6620  -11.2280    4.8630 C.3    43  VAL43       0.0020
      8  N        -32.7860  -11.2290    3.8070 N.am   44  LEU44      -0.1980
      9  CA       -33.1420  -10.8240    2.4690 C.3    44  LEU44       0.1596
     10  C        -34.6390  -10.6340    2.4320 C.2    44  LEU44       0.2287
     11  O        -35.1190   -9.6050    2.0490 O.2    44  LEU44      -0.2864
     12  CB       -32.6500  -11.8420    1.4120 C.3    44  LEU44       0.0297
     13  CG       -33.1770  -11.6800    0.0080 C.3    44  LEU44       0.0022
     14  CD1      -32.8670  -10.3340   -0.6510 C.3    44  LEU44       0.0001
     15  CD2      -32.9150  -12.8400   -0.9140 C.3    44  LEU44       0.0001
     16  N        -29.4570  -13.6380   -2.7540 N.3   106  ILE106     -0.1231
     17  CA       -28.1430  -13.2230   -2.2540 C.3   106  ILE106      0.1692
     18  C        -28.3020  -12.6190   -0.8640 C.2   106  ILE106      0.2592
     19  O        -29.0300  -11.6330   -0.6830 O.2   106  ILE106     -0.2718
     20  CB       -27.5170  -12.1450   -3.2070 C.3   106  ILE106      0.0266
     21  CG1      -27.3590  -12.6870   -4.6260 C.3   106  ILE106      0.0019
     22  CG2      -26.1740  -11.6160   -2.6200 C.3   106  ILE106      0.0020
     23  CD1      -26.3770  -13.9310   -4.7380 C.3   106  ILE106      0.0001
     24  N        -27.6050  -13.1690    0.1360 N.am  107  ALA107     -0.1966
     25  CA       -27.7330  -12.6570    1.4940 C.3   107  ALA107      0.1728
     26  C        -26.4410  -12.8110    2.2650 C.2   107  ALA107      0.2616
     27  O        -25.8040  -13.8540    2.1660 O.2   107  ALA107     -0.2715
     28  CB       -28.8490  -13.3960    2.2310 C.3   107  ALA107      0.0334
     29  N        -26.0710  -11.7990    3.0420 N.am  108  VAL108     -0.1977
     30  CA       -24.9510  -11.9220    4.0010 C.3   108  VAL108      0.1596
     31  C        -25.4590  -11.5370    5.3890 C.2   108  VAL108      0.2287
     32  O        -26.1080  -10.4880    5.5430 O.2   108  VAL108     -0.2864
     33  CB       -23.7330  -11.0510    3.5750 C.3   108  VAL108      0.0276
     34  CG1      -22.6180  -11.0360    4.6830 C.3   108  VAL108      0.0022
     35  CG2      -23.1500  -11.5130    2.2340 C.3   108  VAL108      0.0022
     36  N        -26.0020   -9.9250    8.9590 N.3   110  LYS110     -0.1245
     37  CA       -25.7580   -8.5030    9.2450 C.3   110  LYS110      0.1561
     38  C        -24.3500   -8.2110    9.7830 C.2   110  LYS110      0.2260
     39  O        -23.6770   -7.3010    9.2960 O.2   110  LYS110     -0.2867
     40  CB       -26.8090   -7.9350   10.2070 C.3   110  LYS110      0.0271
     41  CG       -27.9940   -7.2760    9.5160 C.3   110  LYS110      0.0035
     42  CD       -29.0780   -8.2750    9.2530 C.3   110  LYS110      0.0206
     43  CE       -30.2810   -7.6790    8.5280 C.3   110  LYS110      0.1093
     44  NZ       -31.1180   -6.8520    9.4070 N.3   110  LYS110     -0.1314
     45  N        -21.6650   -9.6780    9.3360 N.3   112  GLN112     -0.1231
     46  CA       -20.6140  -10.0790    8.3960 C.3   112  GLN112      0.1698
     47  C        -20.6440   -9.2510    7.1130 C.2   112  GLN112      0.2592
     48  O        -19.9050   -9.5380    6.1710 O.2   112  GLN112     -0.2718
     49  CB       -20.7410  -11.5810    8.0260 C.3   112  GLN112      0.0381
     50  CG       -20.5130  -12.4950    9.2290 C.3   112  GLN112      0.0905
     51  CD       -19.0480  -12.6840    9.5760 C.2   112  GLN112      0.2608
     52  OE1      -18.1630  -12.2800    8.8340 O.2   112  GLN112     -0.2717
     53  NE2      -18.7920  -13.3310   10.7050 N.am  112  GLN112     -0.0878
     54  N        -21.5140   -8.2460    7.0650 N.am  113  GLN113     -0.1966
     55  CA       -21.6250   -7.4220    5.8460 C.3   113  GLN113      0.1733
     56  C        -20.4810   -6.4150    5.7220 C.2   113  GLN113      0.2617
     57  O        -19.8150   -6.1270    6.7210 O.2   113  GLN113     -0.2715
     58  CB       -22.9680   -6.7020    5.8490 C.3   113  GLN113      0.0408
     59  CG       -24.1350   -7.6140    5.5180 C.3   113  GLN113      0.0908
     60  CD       -25.4810   -6.8870    5.6530 C.2   113  GLN113      0.2608
     61  OE1      -25.5120   -5.6600    5.7510 O.2   113  GLN113     -0.2717
     62  NE2      -26.5740   -7.6320    5.6790 N.am  113  GLN113     -0.0878
     63  N        -20.2160   -5.9110    4.5040 N.am  114  GLY114     -0.1940
     64  CA       -19.1860   -4.8640    4.3400 C.3   114  GLY114      0.2014
     65  C        -17.7470   -5.3410    4.4120 C.2   114  GLY114      0.2639
     66  O        -16.8460   -4.5550    4.7420 O.2   114  GLY114     -0.2714
     67  N        -17.5340   -6.6310    4.1130 N.am  115  LYS115     -0.1963
     68  CA       -16.2110   -7.2870    4.1640 C.3   115  LYS115      0.1728
     69  C        -15.9280   -8.0430    2.8500 C.2   115  LYS115      0.2616
     70  O        -15.0840   -8.9440    2.8580 O.2   115  LYS115     -0.2715
     71  CB       -16.1420   -8.3580    5.2910 C.3   115  LYS115      0.0311
     72  CG       -16.3840   -7.8940    6.7150 C.3   115  LYS115      0.0038
     73  CD       -16.5030   -9.1220    7.6280 C.3   115  LYS115      0.0206
     74  CE       -16.5760   -8.7430    9.1110 C.3   115  LYS115      0.1093
     75  NZ       -17.7730   -7.9100    9.4560 N.3   115  LYS115     -0.1314
     76  N        -16.6370   -7.6870    1.7620 N.am  116  LYS116     -0.1963
     77  CA       -16.4690   -8.2710    0.4130 C.3   116  LYS116      0.1728
     78  C        -17.0600   -9.6850    0.2740 C.2   116  LYS116      0.2616
     79  O        -16.8940  -10.3280   -0.7610 O.2   116  LYS116     -0.2715
     80  CB       -14.9970   -8.2700   -0.0760 C.3   116  LYS116      0.0311
     81  CG       -14.1850   -6.9600    0.1030 C.3   116  LYS116      0.0038
     82  CD       -14.6460   -5.8430   -0.8090 C.3   116  LYS116      0.0206
     83  CE       -13.8430   -4.5690   -0.5910 C.3   116  LYS116      0.1093
     84  NZ       -13.9370   -4.0540    0.8000 N.3   116  LYS116     -0.1314
     85  N        -17.7800  -10.1680    1.2890 N.am  117  LEU117     -0.1963
     86  CA       -18.3550  -11.5200    1.1350 C.3   117  LEU117      0.1728
     87  C        -19.4330  -11.6070    0.0460 C.2   117  LEU117      0.2617
     88  O        -19.4960  -12.5940   -0.7220 O.2   117  LEU117     -0.2715
     89  CB       -18.8920  -12.0870    2.4550 C.3   117  LEU117      0.0311
     90  CG       -17.8980  -12.1900    3.6050 C.3   117  LEU117      0.0022
     91  CD1      -18.6280  -12.8240    4.8030 C.3   117  LEU117      0.0001
     92  CD2      -16.6200  -13.0410    3.2200 C.3   117  LEU117      0.0001
     93  N        -20.2870  -10.5840   -0.0280 N.am  118  GLY118     -0.1940
     94  CA       -21.2850  -10.5060   -1.0880 C.3   118  GLY118      0.2014
     95  C        -20.6430  -10.4530   -2.4700 C.2   118  GLY118      0.2638
     96  O        -21.0870  -11.1680   -3.3810 O.2   118  GLY118     -0.2714
     97  N        -19.5700   -9.6590   -2.5970 N.am  119  LEU119     -0.1977
     98  CA       -18.7960   -9.5850   -3.8650 C.3   119  LEU119      0.1596
     99  C        -18.2680  -10.9650   -4.2640 C.2   119  LEU119      0.2287
    100  O        -18.3680  -11.3670   -5.4180 O.2   119  LEU119     -0.2864
    101  CB       -17.6040   -8.6270   -3.7060 C.3   119  LEU119      0.0297
    102  CG       -16.5900   -8.6440   -4.8610 C.3   119  LEU119      0.0022
    103  CD1      -17.2290   -8.0730   -6.1480 C.3   119  LEU119      0.0001
    104  CD2      -15.4260   -7.8140   -4.4820 C.3   119  LEU119      0.0001
    105  N        -31.8090    0.7590   -4.1650 N.3   144  ALA144     -0.1231
    106  CA       -30.9360    0.9260   -2.9870 C.3   144  ALA144      0.1694
    107  C        -29.6860    0.0390   -3.0060 C.2   144  ALA144      0.2592
    108  O        -28.6700    0.3820   -2.3690 O.2   144  ALA144     -0.2718
    109  CB       -31.7100    0.7330   -1.7060 C.3   144  ALA144      0.0304
    110  N        -29.7690   -1.0890   -3.7100 N.am  145  ASN145     -0.1974
    111  CA       -28.5750   -1.8790   -3.7990 C.3   145  ASN145      0.1688
    112  C        -27.9830   -2.0120   -5.1710 C.2   145  ASN145      0.2292
    113  O        -27.0490   -2.7640   -5.3880 O.2   145  ASN145     -0.2864
    114  CB       -28.6530   -3.1850   -3.0190 C.3   145  ASN145      0.1181
    115  CG       -29.6340   -4.2830   -3.4760 C.2   145  ASN145      0.2629
    116  OD1      -30.2910   -5.1530   -2.8900 O.2   145  ASN145     -0.2716
    117  ND2      -29.8850   -3.9130   -4.7280 N.am  145  ASN145     -0.0877
    118  N        -25.9160   -0.1400   -6.5120 N.3   147  GLY147     -0.1210
    119  CA       -24.5020    0.1930   -6.4260 C.3   147  GLY147      0.1956
    120  C        -23.6340   -0.9950   -6.0330 C.2   147  GLY147      0.2612
    121  O        -22.4900   -1.0710   -6.4400 O.2   147  GLY147     -0.2717
    122  N        -24.1830   -1.9190   -5.2360 N.am  148  PHE148     -0.1962
    123  CA       -23.4700   -3.1540   -4.9010 C.3   148  PHE148      0.1771
    124  C        -23.2300   -3.9640   -6.1730 C.2   148  PHE148      0.2619
    125  O        -22.1020   -4.4100   -6.4420 O.2   148  PHE148     -0.2715
    126  CB       -24.2640   -3.9900   -3.8810 C.3   148  PHE148      0.0574
    127  CG       -23.7800   -5.4130   -3.7580 C.ar  148  PHE148     -0.0200
    128  CD1      -24.5830   -6.4830   -4.2060 C.ar  148  PHE148     -0.0042
    129  CD2      -22.5190   -5.6820   -3.2080 C.ar  148  PHE148     -0.0042
    130  CE1      -24.1240   -7.8360   -4.1180 C.ar  148  PHE148     -0.0003
    131  CE2      -22.0160   -7.0160   -3.1290 C.ar  148  PHE148     -0.0003
    132  CZ       -22.8270   -8.0960   -3.5770 C.ar  148  PHE148     -0.0000
    133  N        -24.2950   -4.1580   -6.9520 N.am  149  TYR149     -0.1974
    134  CA       -24.2160   -4.9420   -8.1950 C.3   149  TYR149      0.1639
    135  C        -23.2810   -4.2900   -9.2360 C.2   149  TYR149      0.2290
    136  O        -22.6060   -5.0060   -9.9850 O.2   149  TYR149     -0.2864
    137  CB       -25.6240   -5.2310   -8.7360 C.3   149  TYR149      0.0560
    138  CG       -26.2810   -6.2490   -7.8260 C.ar  149  TYR149     -0.0198
    139  CD1      -27.2520   -5.8610   -6.8940 C.ar  149  TYR149     -0.0009
    140  CD2      -25.8180   -7.5720   -7.8050 C.ar  149  TYR149     -0.0009
    141  CE1      -27.7910   -6.7940   -5.9720 C.ar  149  TYR149      0.0417
    142  CE2      -26.3460   -8.5160   -6.8900 C.ar  149  TYR149      0.0417
    143  CZ       -27.3350   -8.1310   -6.0140 C.ar  149  TYR149      0.1957
    144  OH       -27.8500   -9.0910   -5.1370 O.3   149  TYR149     -0.2866
    145  N        -20.6330   -2.5790   -8.3850 N.3   151  LYS151     -0.1231
    146  CA       -19.2990   -2.9000   -7.8700 C.3   151  LYS151      0.1693
    147  C        -18.9150   -4.3580   -8.1170 C.2   151  LYS151      0.2592
    148  O        -17.7330   -4.7010   -8.0930 O.2   151  LYS151     -0.2718
    149  CB       -19.1370   -2.4840   -6.3970 C.3   151  LYS151      0.0285
    150  CG       -19.0170   -0.9530   -6.2240 C.3   151  LYS151      0.0035
    151  CD       -18.6250   -0.5080   -4.8110 C.3   151  LYS151      0.0206
    152  CE       -17.8680    0.8720   -4.8440 C.3   151  LYS151      0.1093
    153  NZ       -17.7350    1.6090   -3.5320 N.3   151  LYS151     -0.1314
    154  N        -19.9100   -5.2020   -8.3950 N.am  152  CYS152     -0.1970
    155  CA       -19.6800   -6.6070   -8.7620 C.3   152  CYS152      0.1712
    156  C        -19.4680   -6.8010  -10.2540 C.2   152  CYS152      0.2296
    157  O        -19.2030   -7.9180  -10.6860 O.2   152  CYS152     -0.2864
    158  CB       -20.8270   -7.5160   -8.2990 C.3   152  CYS152      0.0983
    159  SG       -21.0130   -7.6160   -6.5060 S.3   152  CYS152     -0.0798
@<TRIPOS>BOND
     1   157   156    2
     2   156   155    1
     3   136   135    2
     4   135   134    1
     5   155   154    1
     6   155   158    1
     7   137   134    1
     8   137   138    1
     9   154   147   am
    10   145   146    1
    11   158   159    1
    12   134   133    1
    13   147   148    2
    14   147   146    1
    15   146   149    1
    16   138   140   ar
    17   138   139   ar
    18   140   142   ar
    19   133   124   am
    20   139   141   ar
    21   142   143   ar
    22   118   119    1
    23   125   124    2
    24   121   120    2
    25   119   120    1
    26   149   150    1
    27   150   151    1
    28   124   123    1
    29   103   102    1
    30   120   122   am
    31   143   141   ar
    32   143   144    1
    33   100    99    2
    34   113   112    2
    35   122   123    1
    36   112   111    1
    37   123   126    1
    38   102   104    1
    39   102   101    1
    40   152   151    1
    41   152   153    1
    42    23    21    1
    43   117   115   am
    44    21    20    1
    45    99    98    1
    46   128   130   ar
    47   128   127   ar
    48   105   106    1
    49   130   132   ar
    50   126   127    1
    51    98   101    1
    52    98    97    1
    53   111   110    1
    54   111   114    1
    55   127   129   ar
    56   110   107   am
    57   132   131   ar
    58   115   114    1
    59   115   116    2
    60    96    95    2
    61   129   131   ar
    62    20    22    1
    63    20    17    1
    64   107   106    1
    65   107   108    2
    66   106   109    1
    67    16    17    1
    68    97    95   am
    69    95    94    1
    70    17    18    1
    71    94    93    1
    72    15    13    1
    73    18    19    2
    74    18    24   am
    75    82    83    1
    76    82    81    1
    77    79    78    2
    78    88    87    2
    79    14    13    1
    80    83    84    1
    81    80    81    1
    82    80    77    1
    83    93    87   am
    84    13    12    1
    85    87    86    1
    86    24    25    1
    87    78    77    1
    88    78    85   am
    89    77    76    1
    90    86    85    1
    91    86    89    1
    92    12     9    1
    93    25    28    1
    94    25    26    1
    95    76    69   am
    96    11    10    2
    97    27    26    2
    98    35    33    1
    99    26    29   am
   100    10     9    1
   101    89    90    1
   102     9     8    1
   103    69    70    2
   104    69    68    1
   105    29    30    1
   106    92    90    1
   107    33    30    1
   108    33    34    1
   109    90    91    1
   110     8     3   am
   111    30    31    1
   112    67    68    1
   113    67    65   am
   114    68    71    1
   115    64    65    1
   116    64    63    1
   117    65    66    2
   118    63    56   am
   119     4     3    2
   120     3     2    1
   121     7     5    1
   122    71    72    1
   123    31    32    2
   124    59    60    1
   125    59    58    1
   126    60    62   am
   127    60    61    2
   128    56    55    1
   129    56    57    2
   130    55    58    1
   131    55    54    1
   132     2     5    1
   133     2     1    1
   134     5     6    1
   135    48    47    2
   136    72    73    1
   137    54    47   am
   138    47    46    1
   139    73    74    1
   140    49    46    1
   141    49    50    1
   142    46    45    1
   143    43    42    1
   144    43    44    1
   145    52    51    2
   146    36    37    1
   147    74    75    1
   148    50    51    1
   149    37    38    1
   150    37    40    1
   151    42    41    1
   152    39    38    2
   153    41    40    1
   154    51    53   am
