@<TRIPOS>MOLECULE
tmp/2vxnA00.pdb
 98 92 0 0 0
SMALL
GASTEIGER

@<TRIPOS>ATOM
      1  N         26.5190    3.7980   13.3240 N.3    10  ASN10      -0.1240
      2  CA        27.4550    3.0380   14.1430 C.3    10  ASN10       0.1653
      3  C         28.8440    3.2350   13.5630 C.2    10  ASN10       0.2266
      4  O         29.2170    2.5800   12.5830 O.2    10  ASN10      -0.2867
      5  CB        27.0760    1.5590   14.1550 C.3    10  ASN10       0.1155
      6  CG        28.0520    0.7540   15.0050 C.2    10  ASN10       0.2627
      7  OD1       28.9260    1.3000   15.6750 O.2    10  ASN10      -0.2716
      8  ND2       27.8830   -0.5770   14.9680 N.am   10  ASN10      -0.0877
      9  N         31.5560    2.3940   14.7760 N.3    12  LYS12      -0.1245
     10  CA        32.4550    1.3180   15.1650 C.3    12  LYS12       0.1561
     11  C         33.7510    1.9280   15.6960 C.2    12  LYS12       0.2260
     12  O         33.7380    2.9800   16.3320 O.2    12  LYS12      -0.2867
     13  CB        32.6050    0.2460   14.0820 C.3    12  LYS12       0.0271
     14  CG        31.2630   -0.2580   13.6130 C.3    12  LYS12       0.0035
     15  CD        31.3880   -1.4510   12.6600 C.3    12  LYS12       0.0206
     16  CE        30.0150   -1.8900   12.2110 C.3    12  LYS12       0.1093
     17  NZ        30.0840   -3.1000   11.3450 N.3    12  LYS12      -0.1314
     18  N         25.5320   -6.0640   19.4860 N.3    94  HIS94      -0.1241
     19  CA        25.9920   -6.0470   18.1110 C.3    94  HIS94       0.1621
     20  C         26.6650   -7.3650   17.7740 C.2    94  HIS94       0.2264
     21  O         27.3690   -7.9590   18.6160 O.2    94  HIS94      -0.2867
     22  CB        26.9790   -4.8770   17.9290 C.3    94  HIS94       0.0745
     23  CG        27.2950   -4.6350   16.4930 C.ar   94  HIS94       0.0817
     24  ND1       28.2780   -5.3570   15.8140 N.ar   94  HIS94      -0.2268
     25  CD2       26.6890   -3.8090   15.6320 C.ar   94  HIS94       0.1154
     26  CE1       28.2270   -4.9430   14.5810 C.ar   94  HIS94       0.1986
     27  NE2       27.3020   -4.0140   14.4110 N.ar   94  HIS94      -0.2212
     28  N         20.1890   -7.2180   11.7830 N.3   166  GLU166     -0.1245
     29  CA        21.3910   -7.0890   10.9660 C.3   166  GLU166      0.1567
     30  C         21.8630   -8.4960   10.6400 C.2   166  GLU166      0.2260
     31  O         22.5960   -9.1390   11.4180 O.2   166  GLU166     -0.2867
     32  CB        22.5030   -6.2710   11.6020 C.3   166  GLU166      0.0388
     33  CG        21.9880   -4.9970   12.2350 C.3   166  GLU166      0.1160
     34  CD        23.0810   -3.9820   12.4870 C.2   166  GLU166      0.3649
     35  OE1       23.9810   -4.2220   13.3620 O.co2 166  GLU166     -0.2457
     36  OE2       23.0830   -2.9610   11.7680 O.co2 166  GLU166     -0.2457
     37  N         25.4440   -9.7820    5.9730 N.3   170  ALA170     -0.1231
     38  CA        25.3140   -8.4900    5.3230 C.3   170  ALA170      0.1694
     39  C         26.2040   -7.4170    5.9590 C.2   170  ALA170      0.2592
     40  O         26.2780   -6.3110    5.4580 O.2   170  ALA170     -0.2718
     41  CB        23.8690   -8.0170    5.3500 C.3   170  ALA170      0.0304
     42  N         26.8420   -7.7230    7.1050 N.am  171  ILE171     -0.1966
     43  CA        27.5850   -6.6880    7.8430 C.3   171  ILE171      0.1727
     44  C         28.9760   -6.5390    7.2370 C.2   171  ILE171      0.2616
     45  O         29.8170   -7.4280    7.3180 O.2   171  ILE171     -0.2715
     46  CB        27.6570   -7.0180    9.3370 C.3   171  ILE171      0.0290
     47  CG1       26.2640   -7.0640    9.9580 C.3   171  ILE171      0.0022
     48  CG2       28.5740   -6.0070   10.0270 C.3   171  ILE171      0.0023
     49  CD1       26.2620   -7.5300   11.3980 C.3   171  ILE171      0.0001
     50  N         29.2090   -5.3880    6.6010 N.am  172  GLY172     -0.1955
     51  CA        30.5210   -5.0900    6.0580 C.3   172  GLY172      0.1869
     52  C         30.9240   -5.8470    4.8080 C.2   172  GLY172      0.2309
     53  O         32.0590   -5.6910    4.3520 O.2   172  GLY172     -0.2863
     54  N         23.1900   -3.7340    7.7270 N.3   211  GLY211     -0.1210
     55  CA        24.0540   -4.6420    6.9860 C.3   211  GLY211      0.1956
     56  C         24.1460   -4.1440    5.5550 C.2   211  GLY211      0.2613
     57  O         23.2470   -4.3780    4.7220 O.2   211  GLY211     -0.2717
     58  N         25.1910   -3.3770    5.2840 N.am  212  SER212     -0.1938
     59  CA        25.4650   -2.8480    3.9480 C.3   212  SER212      0.2055
     60  C         24.4360   -1.8410    3.4570 C.2   212  SER212      0.2642
     61  O         24.3360   -1.6200    2.2400 O.2   212  SER212     -0.2714
     62  CB        25.7200   -3.9740    2.9250 C.3   212  SER212      0.2130
     63  OG        26.8260   -4.7670    3.3090 O.3   212  SER212     -0.2179
     64  N         23.7330   -1.1530    4.3460 N.am  213  VAL213     -0.1977
     65  CA        22.8850   -0.0440    3.9200 C.3   213  VAL213      0.1596
     66  C         23.7680    1.0600    3.3260 C.2   213  VAL213      0.2287
     67  O         24.8050    1.4260    3.9050 O.2   213  VAL213     -0.2864
     68  CB        22.0870    0.5160    5.0980 C.3   213  VAL213      0.0276
     69  CG1       21.2540    1.7250    4.6730 C.3   213  VAL213      0.0022
     70  CG2       21.1650   -0.5580    5.6690 C.3   213  VAL213      0.0022
     71  N         20.4160    0.8550   10.8260 N.3   231  LEU231     -0.1231
     72  CA        21.6420    0.9030   11.6080 C.3   231  LEU231      0.1693
     73  C         22.7830    0.7470   10.5850 C.2   231  LEU231      0.2592
     74  O         22.8740   -0.2460    9.9010 O.2   231  LEU231     -0.2718
     75  CB        21.6660   -0.1630   12.6950 C.3   231  LEU231      0.0284
     76  CG        22.8670   -0.1100   13.6350 C.3   231  LEU231      0.0019
     77  CD1       23.0250    1.2230   14.3360 C.3   231  LEU231      0.0001
     78  CD2       22.7530   -1.2090   14.7130 C.3   231  LEU231      0.0001
     79  N         23.5760    1.8080   10.4680 N.am  232  VAL232     -0.1966
     80  CA        24.4900    1.9850    9.3480 C.3   232  VAL232      0.1727
     81  C         25.9280    1.9720    9.8620 C.2   232  VAL232      0.2617
     82  O         26.2710    2.7830   10.7210 O.2   232  VAL232     -0.2715
     83  CB        24.2020    3.3000    8.6260 C.3   232  VAL232      0.0290
     84  CG1       25.0680    3.4200    7.3750 C.3   232  VAL232      0.0023
     85  CG2       22.7210    3.4380    8.2730 C.3   232  VAL232      0.0023
     86  N         26.7630    1.1120    9.3070 N.am  233  GLY233     -0.1940
     87  CA        28.1670    1.0410    9.6730 C.3   233  GLY233      0.2014
     88  C         28.9920    1.8740    8.7010 C.2   233  GLY233      0.2639
     89  O         29.1080    3.0950    8.8420 O.2   233  GLY233     -0.2714
     90  N         29.5580    1.2250    7.6710 N.am  234  GLY234     -0.1939
     91  CA        30.5210    1.9090    6.8210 C.3   234  GLY234      0.2014
     92  C         30.0180    3.1890    6.2010 C.2   234  GLY234      0.2638
     93  O         30.7610    4.1750    6.1320 O.2   234  GLY234     -0.2714
     94  N         28.7680    3.2210    5.7180 N.am  235  ALA235     -0.1977
     95  CA        28.2750    4.4290    5.0370 C.3   235  ALA235      0.1597
     96  C         28.0890    5.5850    6.0100 C.2   235  ALA235      0.2287
     97  O         27.9490    6.7280    5.5710 O.2   235  ALA235     -0.2864
     98  CB        26.9920    4.1080    4.2710 C.3   235  ALA235      0.0319
@<TRIPOS>BOND
     1    61    60    2
     2    62    63    1
     3    62    59    1
     4    66    67    2
     5    66    65    1
     6    60    59    1
     7    60    64   am
     8    65    64    1
     9    65    68    1
    10    59    58    1
    11    98    95    1
    12    53    52    2
    13    69    68    1
    14    57    56    2
    15    52    51    1
    16    95    94    1
    17    95    96    1
    18    68    70    1
    19    58    56   am
    20    38    41    1
    21    38    39    1
    22    38    37    1
    23    40    39    2
    24    56    55    1
    25    97    96    2
    26    94    92   am
    27    39    42   am
    28    51    50    1
    29    93    92    2
    30    92    91    1
    31    50    44   am
    32    91    90    1
    33    55    54    1
    34    42    43    1
    35    44    45    2
    36    44    43    1
    37    84    83    1
    38    90    88   am
    39    43    46    1
    40    85    83    1
    41    83    80    1
    42    88    89    2
    43    88    87    1
    44    86    87    1
    45    86    81   am
    46    46    47    1
    47    46    48    1
    48    80    81    1
    49    80    79    1
    50    81    82    2
    51    74    73    2
    52    47    49    1
    53    79    73   am
    54    73    72    1
    55    30    29    1
    56    30    31    2
    57    71    72    1
    58    29    32    1
    59    29    28    1
    60    17    16    1
    61    32    33    1
    62    72    75    1
    63    36    34   ar
    64    16    15    1
    65    33    34    1
    66    34    35   ar
    67     4     3    2
    68    15    14    1
    69    75    76    1
    70     1     2    1
    71     3     2    1
    72    14    13    1
    73    76    77    1
    74    76    78    1
    75    13    10    1
    76     2     5    1
    77     5     6    1
    78    27    26   ar
    79    27    25   ar
    80    26    24   ar
    81     9    10    1
    82     8     6   am
    83     6     7    2
    84    10    11    1
    85    25    23   ar
    86    11    12    2
    87    24    23   ar
    88    23    22    1
    89    20    19    1
    90    20    21    2
    91    22    19    1
    92    19    18    1
