@<TRIPOS>MOLECULE
tmp/2vxoB00.pdb
 149 144 0 0 0
SMALL
GASTEIGER

@<TRIPOS>ATOM
      1  N         -1.9240    0.7310  -26.9840 N.3   302  ARG302     -0.1245
      2  CA        -2.0620    0.8020  -25.5320 C.3   302  ARG302      0.1563
      3  C         -2.2730    2.2440  -25.0760 C.2   302  ARG302      0.2260
      4  O         -3.1460    2.5200  -24.2440 O.2   302  ARG302     -0.2867
      5  CB        -0.8530    0.1830  -24.8240 C.3   302  ARG302      0.0307
      6  CG        -0.8090   -1.3400  -24.8270 C.3   302  ARG302      0.0489
      7  CD         0.3990   -1.8410  -24.0410 C.3   302  ARG302      0.2205
      8  NE         0.3270   -3.2760  -23.7610 N.pl3 302  ARG302     -0.0865
      9  CZ         0.8300   -4.2250  -24.5500 C.cat 302  ARG302      0.5346
     10  NH1        1.4510   -3.9060  -25.6870 N.pl3 302  ARG302      0.1354
     11  NH2        0.6980   -5.4970  -24.2060 N.pl3 302  ARG302      0.1354
     12  N          2.8050    1.8310  -18.2080 N.3   345  VAL345     -0.1245
     13  CA         1.5550    2.2130  -18.8570 C.3   345  VAL345      0.1561
     14  C          1.6000    1.8140  -20.3330 C.2   345  VAL345      0.2260
     15  O          0.7180    1.0960  -20.8180 O.2   345  VAL345     -0.2867
     16  CB         1.3080    3.7400  -18.7280 C.3   345  VAL345      0.0252
     17  CG1       -0.0130    4.1400  -19.3960 C.3   345  VAL345      0.0019
     18  CG2        1.3370    4.1710  -17.2620 C.3   345  VAL345      0.0019
     19  N          3.4650   -0.3180  -21.9130 N.3   347  SER347     -0.1202
     20  CA         3.9500   -1.6670  -22.2740 C.3   347  SER347      0.2020
     21  C          3.1870   -2.8580  -21.6850 C.2   347  SER347      0.2619
     22  O          3.3000   -3.9770  -22.1910 O.2   347  SER347     -0.2717
     23  CB         5.4570   -1.7960  -21.9870 C.3   347  SER347      0.2103
     24  OG         5.7250   -2.0730  -20.6180 O.3   347  SER347     -0.2182
     25  N          2.4320   -2.6230  -20.6150 N.am  348  GLY348     -0.1942
     26  CA         1.6860   -3.6900  -19.9410 C.3   348  GLY348      0.2014
     27  C          0.7970   -3.1950  -18.8110 C.2   348  GLY348      0.2639
     28  O          0.4300   -2.0200  -18.7800 O.2   348  GLY348     -0.2714
     29  N          0.4600   -4.0930  -17.8800 N.am  349  LYS349     -0.1963
     30  CA        -0.4520   -3.7840  -16.7720 C.3   349  LYS349      0.1728
     31  C          0.0880   -2.6430  -15.9050 C.2   349  LYS349      0.2616
     32  O          1.2900   -2.5860  -15.6180 O.2   349  LYS349     -0.2715
     33  CB        -0.7210   -5.0280  -15.9170 C.3   349  LYS349      0.0311
     34  CG        -1.8930   -4.8950  -14.9430 C.3   349  LYS349      0.0038
     35  CD        -1.6170   -5.6180  -13.6200 C.3   349  LYS349      0.0206
     36  CE        -0.8260   -4.7230  -12.6370 C.3   349  LYS349      0.1093
     37  NZ        -0.2040   -5.4790  -11.4970 N.3   349  LYS349     -0.1314
     38  N         -0.8110   -1.7420  -15.5040 N.am  350  ALA350     -0.1977
     39  CA        -0.4630   -0.5140  -14.7850 C.3   350  ALA350      0.1597
     40  C         -1.7160    0.1050  -14.1920 C.2   350  ALA350      0.2287
     41  O         -2.8210   -0.1700  -14.6530 O.2   350  ALA350     -0.2864
     42  CB         0.2040    0.4830  -15.7340 C.3   350  ALA350      0.0319
     43  N         -6.8590  -14.0790  -15.8960 N.3   402  PRO402     -0.2102
     44  CA        -6.7710  -12.6320  -16.1320 C.3   402  PRO402      0.1504
     45  C         -7.0000  -12.2790  -17.6060 C.2   402  PRO402      0.2576
     46  O         -6.7700  -13.0970  -18.5030 O.2   402  PRO402     -0.2718
     47  CB        -5.3380  -12.2870  -15.7160 C.3   402  PRO402      0.0282
     48  CG        -4.5700  -13.5860  -15.8240 C.3   402  PRO402      0.0208
     49  CD        -5.5630  -14.6730  -15.5020 C.3   402  PRO402      0.0893
     50  N         -7.4560  -11.0670  -17.8470 N.am  403  PHE403     -0.1963
     51  CA        -7.7210  -10.6130  -19.1830 C.3   403  PHE403      0.1756
     52  C         -7.2660   -9.1570  -19.2050 C.2   403  PHE403      0.2461
     53  O         -7.7170   -8.3640  -18.3900 O.2   403  PHE403     -0.2730
     54  CB        -9.2130  -10.7540  -19.4610 C.3   403  PHE403      0.0574
     55  CG        -9.6170  -10.3440  -20.8340 C.ar  403  PHE403     -0.0200
     56  CD1       -9.4440  -11.2150  -21.9090 C.ar  403  PHE403     -0.0042
     57  CD2      -10.1810   -9.0950  -21.0600 C.ar  403  PHE403     -0.0042
     58  CE1       -9.8120  -10.8380  -23.1830 C.ar  403  PHE403     -0.0003
     59  CE2      -10.5550   -8.7120  -22.3280 C.ar  403  PHE403     -0.0003
     60  CZ       -10.3820   -9.5820  -23.3940 C.ar  403  PHE403     -0.0000
     61  N         -6.3510   -8.8040  -20.1200 N.am  404  PRO404     -0.2716
     62  CA        -5.7130   -7.4860  -20.0720 C.3   404  PRO404      0.1536
     63  C         -6.6690   -6.3440  -20.3660 C.2   404  PRO404      0.2599
     64  O         -7.6030   -6.5070  -21.1450 O.2   404  PRO404     -0.2715
     65  CB        -4.6680   -7.5740  -21.1830 C.3   404  PRO404      0.0310
     66  CG        -5.2360   -8.5750  -22.1500 C.3   404  PRO404      0.0237
     67  CD        -5.9120   -9.5880  -21.2930 C.3   404  PRO404      0.0939
     68  N         -6.4200   -5.1970  -19.7410 N.am  405  GLY405     -0.1941
     69  CA        -7.1070   -3.9460  -20.0580 C.3   405  GLY405      0.1998
     70  C         -7.4790   -3.7410  -21.5230 C.2   405  GLY405      0.2480
     71  O         -8.6630   -3.5780  -21.8320 O.2   405  GLY405     -0.2729
     72  N         -6.4810   -3.7710  -22.4420 N.am  406  PRO406     -0.2726
     73  CA        -6.7540   -3.4750  -23.8480 C.3   406  PRO406      0.1402
     74  C         -7.4000   -4.6350  -24.5920 C.2   406  PRO406      0.2269
     75  O         -7.5970   -4.5480  -25.8030 O.2   406  PRO406     -0.2865
     76  CB        -5.3550   -3.2070  -24.4360 C.3   406  PRO406      0.0296
     77  CG        -4.3930   -3.3200  -23.2950 C.3   406  PRO406      0.0237
     78  CD        -5.0710   -4.1420  -22.2610 C.3   406  PRO406      0.0939
     79  N         -4.6750   -6.0880  -28.4430 N.3   410  ILE410     -0.1245
     80  CA        -3.2960   -6.5990  -28.5140 C.3   410  ILE410      0.1561
     81  C         -3.2180   -8.0670  -28.9170 C.2   410  ILE410      0.2260
     82  O         -2.1720   -8.7000  -28.7570 O.2   410  ILE410     -0.2867
     83  CB        -2.5200   -6.4170  -27.1820 C.3   410  ILE410      0.0252
     84  CG1       -3.3120   -7.0180  -26.0130 C.3   410  ILE410      0.0019
     85  CG2       -2.1900   -4.9540  -26.9610 C.3   410  ILE410      0.0019
     86  CD1       -2.5390   -7.1660  -24.7100 C.3   410  ILE410      0.0001
     87  N         12.4610   -5.5030  -23.9890 N.3   489  ARG489     -0.1245
     88  CA        11.4320   -5.8620  -24.9790 C.3   489  ARG489      0.1563
     89  C         11.8960   -5.7120  -26.4250 C.2   489  ARG489      0.2260
     90  O         12.7020   -4.8470  -26.7540 O.2   489  ARG489     -0.2867
     91  CB        10.1280   -5.1010  -24.7570 C.3   489  ARG489      0.0307
     92  CG         9.2070   -5.8600  -23.8580 C.3   489  ARG489      0.0489
     93  CD         7.7740   -5.3970  -23.9520 C.3   489  ARG489      0.2205
     94  NE         6.8870   -6.4470  -23.4430 N.pl3 489  ARG489     -0.0865
     95  CZ         5.5620   -6.4290  -23.5280 C.cat 489  ARG489      0.5346
     96  NH1        4.9360   -5.4000  -24.1040 N.pl3 489  ARG489      0.1354
     97  NH2        4.8640   -7.4470  -23.0340 N.pl3 489  ARG489      0.1354
     98  N         -3.4560  -18.7720  -18.3720 N.3   575  GLN575     -0.1245
     99  CA        -3.9980  -17.8010  -19.3350 C.3   575  GLN575      0.1566
    100  C         -3.8230  -18.3480  -20.7370 C.2   575  GLN575      0.2260
    101  O         -2.8050  -18.9880  -21.0390 O.2   575  GLN575     -0.2867
    102  CB        -3.2770  -16.4520  -19.2380 C.3   575  GLN575      0.0367
    103  CG        -4.0160  -15.3020  -19.9130 C.3   575  GLN575      0.0905
    104  CD        -3.4150  -13.9460  -19.5920 C.2   575  GLN575      0.2608
    105  OE1       -2.4670  -13.8430  -18.8310 O.2   575  GLN575     -0.2717
    106  NE2       -3.9740  -12.9010  -20.1700 N.am  575  GLN575     -0.0878
    107  N          3.9710  -14.5700  -13.8680 N.3   610  PHE610     -0.1241
    108  CA         3.9650  -13.9020  -15.1870 C.3   610  PHE610      0.1605
    109  C          5.2930  -13.2630  -15.5980 C.2   610  PHE610      0.2264
    110  O          5.3660  -12.5760  -16.6150 O.2   610  PHE610     -0.2867
    111  CB         2.7930  -12.9180  -15.3360 C.3   610  PHE610      0.0534
    112  CG         1.4540  -13.5930  -15.4570 C.ar  610  PHE610     -0.0203
    113  CD1        1.0370  -14.1280  -16.6740 C.ar  610  PHE610     -0.0042
    114  CD2        0.6120  -13.7030  -14.3540 C.ar  610  PHE610     -0.0042
    115  CE1       -0.1980  -14.7610  -16.7870 C.ar  610  PHE610     -0.0003
    116  CE2       -0.6260  -14.3310  -14.4610 C.ar  610  PHE610     -0.0003
    117  CZ        -1.0290  -14.8640  -15.6810 C.ar  610  PHE610     -0.0000
    118  N          8.4630  -18.0700  -21.7900 N.3   650  LYS650     -0.1245
    119  CA         8.9250  -16.7400  -21.4350 C.3   650  LYS650      0.1561
    120  C         10.0790  -16.8940  -20.4480 C.2   650  LYS650      0.2260
    121  O          9.9060  -17.5150  -19.3960 O.2   650  LYS650     -0.2867
    122  CB         7.7860  -15.9160  -20.8150 C.3   650  LYS650      0.0271
    123  CG         8.1870  -14.5060  -20.3930 C.3   650  LYS650      0.0035
    124  CD         7.0400  -13.7370  -19.7790 C.3   650  LYS650      0.0206
    125  CE         7.4720  -12.3140  -19.4480 C.3   650  LYS650      0.1093
    126  NZ         6.3590  -11.5510  -18.8160 N.3   650  LYS650     -0.1314
    127  N          6.6530  -13.8850  -24.6290 N.3   654  THR654     -0.1203
    128  CA         5.8840  -13.3370  -23.5320 C.3   654  THR654      0.1994
    129  C          4.5120  -13.9930  -23.5560 C.2   654  THR654      0.2619
    130  O          4.2360  -14.8530  -24.4020 O.2   654  THR654     -0.2717
    131  CB         5.7860  -11.7830  -23.5550 C.3   654  THR654      0.1784
    132  OG1        5.1290  -11.3560  -24.7460 O.3   654  THR654     -0.2211
    133  CG2        7.1620  -11.1290  -23.4650 C.3   654  THR654      0.0376
    134  N          3.6590  -13.6010  -22.6230 N.am  655  THR655     -0.1938
    135  CA         2.3340  -14.1760  -22.5540 C.3   655  THR655      0.2028
    136  C          1.5690  -13.7320  -23.8030 C.2   655  THR655      0.2642
    137  O          1.1140  -14.5600  -24.6070 O.2   655  THR655     -0.2714
    138  CB         1.6040  -13.7590  -21.2720 C.3   655  THR655      0.1808
    139  OG1        2.5270  -13.7720  -20.1700 O.3   655  THR655     -0.2208
    140  CG2        0.4670  -14.7210  -20.9730 C.3   655  THR655      0.0379
    141  N          1.4740  -12.4160  -23.9670 N.am  656  GLU656     -0.1976
    142  CA         0.7950  -11.8250  -25.0980 C.3   656  GLU656      0.1602
    143  C          1.7630  -11.7050  -26.2830 C.2   656  GLU656      0.2287
    144  O          2.9920  -11.7320  -26.1140 O.2   656  GLU656     -0.2864
    145  CB         0.2490  -10.4580  -24.6980 C.3   656  GLU656      0.0415
    146  CG        -0.6590  -10.4720  -23.4640 C.3   656  GLU656      0.1163
    147  CD        -2.1060  -10.9200  -23.7380 C.2   656  GLU656      0.3649
    148  OE1       -2.8820  -11.0250  -22.7620 O.co2 656  GLU656     -0.2457
    149  OE2       -2.4850  -11.1490  -24.9100 O.co2 656  GLU656     -0.2457
@<TRIPOS>BOND
     1    81    82    2
     2    81    80    1
     3    80    79    1
     4    80    83    1
     5    83    85    1
     6    83    84    1
     7     1     2    1
     8    90    89    2
     9    89    88    1
    10   143   144    2
    11   143   142    1
    12    84    86    1
    13    75    74    2
    14    10     9    1
    15     2     3    1
    16     2     5    1
    17   142   145    1
    18   142   141    1
    19     3     4    2
    20    88    91    1
    21    88    87    1
    22   149   147   ar
    23     6     5    1
    24     6     7    1
    25    91    92    1
    26   132   131    1
    27   145   146    1
    28   127   128    1
    29   137   136    2
    30    74    73    1
    31     9    11    1
    32     9     8    2
    33    76    73    1
    34    76    77    1
    35   130   129    2
    36    96    95    1
    37     7     8    1
    38   141   136   am
    39    93    92    1
    40    93    94    1
    41    73    72    1
    42   136   135    1
    43   147   146    1
    44   147   148   ar
    45   129   128    1
    46   129   134   am
    47   131   128    1
    48   131   133    1
    49    95    94    2
    50    95    97    1
    51    60    58   ar
    52    60    59   ar
    53    77    78    1
    54    58    56   ar
    55   134   135    1
    56   135   138    1
    57    72    78    1
    58    72    70   am
    59    59    57   ar
    60    20    23    1
    61    20    19    1
    62    20    21    1
    63    22    21    2
    64    66    67    1
    65    66    65    1
    66    23    24    1
    67    56    55   ar
    68    71    70    2
    69   118   119    1
    70    21    25   am
    71    70    69    1
    72   119   122    1
    73   119   120    1
    74    67    61    1
    75   138   140    1
    76   138   139    1
    77    65    62    1
    78    64    63    2
    79    57    55   ar
    80   101   100    2
    81    55    54    1
    82    15    14    2
    83   122   123    1
    84   100    99    1
    85    25    26    1
    86   120   121    2
    87   123   124    1
    88    63    62    1
    89    63    68   am
    90    14    13    1
    91   106   104   am
    92    61    62    1
    93    61    52   am
    94    69    68    1
    95    26    27    1
    96   103   104    1
    97   103   102    1
    98   124   125    1
    99   104   105    2
   100    54    51    1
   101   125   126    1
   102    17    16    1
   103    99   102    1
   104    99    98    1
   105    52    51    1
   106    52    53    2
   107    51    50    1
   108    13    16    1
   109    13    12    1
   110    27    28    2
   111    27    29   am
   112    16    18    1
   113    46    45    2
   114    29    30    1
   115    50    45   am
   116    45    44    1
   117   115   113   ar
   118   115   117   ar
   119    30    33    1
   120    30    31    1
   121   113   112   ar
   122   110   109    2
   123    44    43    1
   124    44    47    1
   125    33    34    1
   126    31    32    2
   127    31    38   am
   128    43    49    1
   129    48    47    1
   130    48    49    1
   131    42    39    1
   132   117   116   ar
   133   109   108    1
   134    38    39    1
   135   112   111    1
   136   112   114   ar
   137   111   108    1
   138   108   107    1
   139    34    35    1
   140    39    40    1
   141    41    40    2
   142   116   114   ar
   143    35    36    1
   144    36    37    1
