@<TRIPOS>MOLECULE
tmp/2vxyA00.pdb
 102 96 0 0 0
SMALL
GASTEIGER

@<TRIPOS>ATOM
      1  N         -7.8930   33.8350   22.9780 N.3     9  VAL9       -0.1231
      2  CA        -8.4020   35.0160   23.6630 C.3     9  VAL9        0.1692
      3  C         -9.9210   34.8840   23.8340 C.2     9  VAL9        0.2593
      4  O        -10.6340   34.7190   22.8580 O.2     9  VAL9       -0.2718
      5  CB        -8.1160   36.3000   22.8740 C.3     9  VAL9        0.0266
      6  CG1       -8.6360   37.5250   23.6350 C.3     9  VAL9        0.0020
      7  CG2       -6.5990   36.4010   22.6600 C.3     9  VAL9        0.0020
      8  N        -10.3950   34.9890   25.0640 N.am   10  GLY10      -0.1942
      9  CA       -11.8460   34.9450   25.2900 C.3    10  GLY10       0.2014
     10  C        -12.4110   33.5440   25.0570 C.2    10  GLY10       0.2639
     11  O        -11.6690   32.5560   24.9800 O.2    10  GLY10      -0.2714
     12  N        -13.7380   33.4410   24.9730 N.am   11  GLY11      -0.1939
     13  CA       -14.3610   32.1100   24.8840 C.3    11  GLY11       0.2014
     14  C        -14.0530   31.3530   23.6040 C.2    11  GLY11       0.2639
     15  O        -13.7650   30.1580   23.6390 O.2    11  GLY11      -0.2714
     16  N        -14.1030   32.0200   22.4590 N.am   12  GLY12      -0.1954
     17  CA       -13.8330   31.3000   21.1860 C.3    12  GLY12       0.1869
     18  C        -12.3850   30.8060   21.1470 C.2    12  GLY12       0.2309
     19  O        -12.1140   29.6810   20.7250 O.2    12  GLY12      -0.2863
     20  N         -7.9960   35.4880   29.3300 N.3    34  ASN34      -0.1225
     21  CA        -9.4390   35.7040   29.4700 C.3    34  ASN34       0.1785
     22  C         -9.7150   36.6080   30.6490 C.2    34  ASN34       0.2598
     23  O         -8.9460   36.6650   31.6100 O.2    34  ASN34      -0.2718
     24  CB       -10.1920   34.3590   29.6510 C.3    34  ASN34       0.1169
     25  CG       -11.6240   34.3740   29.0990 C.2    34  ASN34       0.2627
     26  OD1      -12.2590   35.4270   28.9300 O.2    34  ASN34      -0.2716
     27  ND2      -12.1170   33.1760   28.7390 N.am   34  ASN34      -0.0877
     28  N        -10.8150   37.3080   30.5310 N.am   35  THR35      -0.1939
     29  CA       -11.3720   38.1040   31.6290 C.3    35  THR35       0.2028
     30  C        -12.2950   37.2130   32.5080 C.2    35  THR35       0.2642
     31  O        -12.6130   37.5830   33.6650 O.2    35  THR35      -0.2714
     32  CB       -12.2710   39.2030   31.0780 C.3    35  THR35       0.1808
     33  OG1      -13.2180   38.6470   30.1560 O.3    35  THR35      -0.2208
     34  CG2      -11.4480   40.2960   30.3820 C.3    35  THR35       0.0379
     35  N        -12.7830   36.1030   31.9320 N.am   36  ASP36      -0.1971
     36  CA       -13.7610   35.2200   32.6180 C.3    36  ASP36       0.1709
     37  C        -12.9880   34.1210   33.3420 C.2    36  ASP36       0.2293
     38  O        -12.4460   33.1970   32.7000 O.2    36  ASP36      -0.2864
     39  CB       -14.6750   34.6780   31.5090 C.3    36  ASP36       0.1436
     40  CG       -15.7320   33.6840   31.9730 C.2    36  ASP36       0.3671
     41  OD1      -15.7070   33.1690   33.1060 O.co2  36  ASP36      -0.2456
     42  OD2      -16.6110   33.4050   31.1040 O.co2  36  ASP36      -0.2456
     43  N        -15.2970   38.2690   36.0140 N.3    59  LEU59      -0.1231
     44  CA       -16.6670   38.0590   35.5400 C.3    59  LEU59       0.1693
     45  C        -16.8710   38.1480   34.0410 C.2    59  LEU59       0.2593
     46  O        -18.0460   38.0460   33.5560 O.2    59  LEU59      -0.2718
     47  CB       -17.6690   39.0250   36.2210 C.3    59  LEU59       0.0284
     48  CG       -17.5740   39.0380   37.7490 C.3    59  LEU59       0.0019
     49  CD1      -18.4630   40.1790   38.3270 C.3    59  LEU59       0.0001
     50  CD2      -17.9450   37.6530   38.3560 C.3    59  LEU59       0.0001
     51  N        -15.8020   38.3740   33.2830 N.am   60  GLY60      -0.1942
     52  CA       -16.0220   38.4530   31.8170 C.3    60  GLY60       0.2014
     53  C        -16.3440   39.8900   31.4070 C.2    60  GLY60       0.2639
     54  O        -16.4890   40.7910   32.2610 O.2    60  GLY60      -0.2714
     55  N        -16.4100   40.1310   30.1020 N.am   61  ALA61      -0.1963
     56  CA       -16.5430   41.5030   29.6050 C.3    61  ALA61       0.1728
     57  C        -17.9780   41.8680   29.2620 C.2    61  ALA61       0.2617
     58  O        -18.2400   42.9700   28.7560 O.2    61  ALA61      -0.2715
     59  CB       -15.6310   41.6960   28.3660 C.3    61  ALA61       0.0334
     60  N        -18.9120   40.9460   29.5180 N.am   62  GLY62      -0.1940
     61  CA       -20.3240   41.2160   29.2440 C.3    62  GLY62       0.2014
     62  C        -20.6770   41.6220   27.8230 C.2    62  GLY62       0.2638
     63  O        -21.5470   42.4790   27.6270 O.2    62  GLY62      -0.2714
     64  N        -20.0320   40.9880   26.8370 N.am   63  ALA63      -0.1977
     65  CA       -20.2480   41.2620   25.4110 C.3    63  ALA63       0.1597
     66  C        -19.9520   42.7000   25.0470 C.2    63  ALA63       0.2287
     67  O        -20.4270   43.1650   24.0180 O.2    63  ALA63      -0.2864
     68  CB       -21.6500   40.8590   24.9500 C.3    63  ALA63       0.0319
     69  N        -13.0640   34.4360   19.0070 N.3    94  GLY94      -0.1225
     70  CA       -14.3520   34.5960   18.3260 C.3    94  GLY94       0.1811
     71  C        -14.6720   36.0790   18.3210 C.2    94  GLY94       0.2280
     72  O        -14.4850   36.7990   19.3320 O.2    94  GLY94      -0.2866
     73  N        -18.2100   39.2490   20.6210 N.3    97  GLY97      -0.1210
     74  CA       -18.3950   39.3740   22.0730 C.3    97  GLY97       0.1956
     75  C        -17.5320   40.5060   22.6160 C.2    97  GLY97       0.2612
     76  O        -17.1570   41.4210   21.8600 O.2    97  GLY97      -0.2717
     77  N        -17.2170   40.4730   23.9030 N.am   98  GLY98      -0.1942
     78  CA       -16.4510   41.5650   24.5110 C.3    98  GLY98       0.2014
     79  C        -14.9490   41.3070   24.5400 C.2    98  GLY98       0.2640
     80  O        -14.1450   42.1630   24.1490 O.2    98  GLY98      -0.2714
     81  N        -14.5570   40.1640   25.0880 N.am   99  THR99      -0.1936
     82  CA       -13.1360   39.8670   25.2800 C.3    99  THR99       0.2028
     83  C        -12.4080   39.5230   23.9770 C.2    99  THR99       0.2642
     84  O        -11.3260   40.0480   23.7540 O.2    99  THR99      -0.2714
     85  CB       -12.9570   38.7170   26.3010 C.3    99  THR99       0.1808
     86  OG1      -13.5990   39.1290   27.5120 O.3    99  THR99      -0.2208
     87  CG2      -11.4730   38.4130   26.5690 C.3    99  THR99       0.0379
     88  N        -12.9770   38.6580   23.1380 N.am  100  GLY100     -0.1954
     89  CA       -12.3900   38.4060   21.8020 C.3   100  GLY100      0.1869
     90  C        -12.2870   39.7050   21.0030 C.2   100  GLY100      0.2309
     91  O        -11.1810   40.1420   20.5900 O.2   100  GLY100     -0.2863
     92  N        -24.2110   41.2040   17.7180 N.3   133  ARG133     -0.1245
     93  CA       -22.9950   40.3650   17.5440 C.3   133  ARG133      0.1563
     94  C        -22.3480   40.6380   16.1840 C.2   133  ARG133      0.2260
     95  O        -21.1150   40.7530   16.0880 O.2   133  ARG133     -0.2867
     96  CB       -23.3160   38.8770   17.6780 C.3   133  ARG133      0.0307
     97  CG       -23.6360   38.4480   19.1330 C.3   133  ARG133      0.0489
     98  CD       -22.5860   38.9830   20.0710 C.3   133  ARG133      0.2205
     99  NE       -22.7500   38.6010   21.4740 N.pl3 133  ARG133     -0.0865
    100  CZ       -21.9400   37.7600   22.1150 C.cat 133  ARG133      0.5346
    101  NH1      -20.9430   37.1550   21.4610 N.pl3 133  ARG133      0.1354
    102  NH2      -22.1630   37.4900   23.4020 N.pl3 133  ARG133      0.1354
@<TRIPOS>BOND
     1    95    94    2
     2    94    93    1
     3    93    96    1
     4    93    92    1
     5    96    97    1
     6    71    70    1
     7    71    72    2
     8    70    69    1
     9    97    98    1
    10    98    99    1
    11    91    90    2
    12    73    74    1
    13    19    18    2
    14    90    89    1
    15    18    17    1
    16    17    16    1
    17   101   100    1
    18    99   100    2
    19    89    88    1
    20    76    75    2
    21    74    75    1
    22   100   102    1
    23    16    14   am
    24    75    77   am
    25     7     5    1
    26     4     3    2
    27     5     6    1
    28     5     2    1
    29     1     2    1
    30    88    83   am
    31    14    15    2
    32    14    13    1
    33     2     3    1
    34    84    83    2
    35     3     8   am
    36    77    78    1
    37    83    82    1
    38    67    66    2
    39    80    79    2
    40    78    79    1
    41    79    81   am
    42    13    12    1
    43    68    65    1
    44    12    10   am
    45    11    10    2
    46    66    65    1
    47    10     9    1
    48     8     9    1
    49    81    82    1
    50    82    85    1
    51    65    64    1
    52    85    87    1
    53    85    86    1
    54    64    62   am
    55    63    62    2
    56    62    61    1
    57    59    56    1
    58    27    25   am
    59    58    57    2
    60    26    25    2
    61    25    24    1
    62    61    60    1
    63    57    60   am
    64    57    56    1
    65    20    21    1
    66    21    24    1
    67    21    22    1
    68    56    55    1
    69    55    53   am
    70    33    32    1
    71    34    32    1
    72    28    22   am
    73    28    29    1
    74    22    23    2
    75    32    29    1
    76    42    40   ar
    77    53    52    1
    78    53    54    2
    79    39    40    1
    80    39    36    1
    81    29    30    1
    82    52    51    1
    83    35    30   am
    84    35    36    1
    85    40    41   ar
    86    30    31    2
    87    36    37    1
    88    38    37    2
    89    51    45   am
    90    46    45    2
    91    45    44    1
    92    44    43    1
    93    44    47    1
    94    47    48    1
    95    48    49    1
    96    48    50    1
