@<TRIPOS>MOLECULE
tmp/2vyaB00.pdb
 155 148 0 0 0
SMALL
GASTEIGER

@<TRIPOS>ATOM
      1  N         44.9880   -4.3970    2.8440 N.3   158  MET158     -0.1230
      2  CA        46.3220   -3.9490    2.4320 C.3   158  MET158      0.1702
      3  C         46.3930   -2.6310    1.6480 C.2   158  MET158      0.2592
      4  O         47.4990   -2.1970    1.3030 O.2   158  MET158     -0.2718
      5  CB        47.0670   -5.0550    1.6890 C.3   158  MET158      0.0401
      6  CG        47.5300   -6.1450    2.6020 C.3   158  MET158      0.0596
      7  SD        48.5420   -7.3060    1.6960 S.3   158  MET158     -0.1393
      8  CE        47.3330   -8.3180    0.8410 C.3   158  MET158      0.0692
      9  N         45.2650   -1.9710    1.3950 N.am  159  PHE159     -0.1962
     10  CA        45.3170   -0.7720    0.5870 C.3   159  PHE159      0.1771
     11  C         45.3880    0.5350    1.4060 C.2   159  PHE159      0.2620
     12  O         44.6710    1.5050    1.1280 O.2   159  PHE159     -0.2715
     13  CB        44.2000   -0.7440   -0.4610 C.3   159  PHE159      0.0574
     14  CG        44.5980   -0.0130   -1.7130 C.ar  159  PHE159     -0.0200
     15  CD1       45.4210   -0.6290   -2.6550 C.ar  159  PHE159     -0.0042
     16  CD2       44.2130    1.3050   -1.9260 C.ar  159  PHE159     -0.0042
     17  CE1       45.8260    0.0330   -3.8180 C.ar  159  PHE159     -0.0003
     18  CE2       44.6090    1.9770   -3.0890 C.ar  159  PHE159     -0.0003
     19  CZ        45.4260    1.3370   -4.0400 C.ar  159  PHE159     -0.0000
     20  N         46.3050    0.5700    2.3740 N.am  160  SER160     -0.1936
     21  CA        46.5830    1.7780    3.1700 C.3   160  SER160      0.2055
     22  C         48.0510    1.8100    3.5920 C.2   160  SER160      0.2643
     23  O         48.7170    0.7680    3.6120 O.2   160  SER160     -0.2714
     24  CB        45.6760    1.7920    4.4010 C.3   160  SER160      0.2130
     25  OG        46.1370    2.6750    5.3960 O.3   160  SER160     -0.2179
     26  N         48.5710    2.9960    3.8970 N.am  161  TYR161     -0.1973
     27  CA        49.9030    3.0640    4.4870 C.3   161  TYR161      0.1639
     28  C         49.8770    3.3940    5.9840 C.2   161  TYR161      0.2290
     29  O         50.8540    3.9020    6.5400 O.2   161  TYR161     -0.2864
     30  CB        50.8790    3.9240    3.6660 C.3   161  TYR161      0.0560
     31  CG        50.6450    5.4260    3.5720 C.ar  161  TYR161     -0.0198
     32  CD1       49.6480    5.9590    2.7770 C.ar  161  TYR161     -0.0009
     33  CD2       51.5090    6.3130    4.2070 C.ar  161  TYR161     -0.0009
     34  CE1       49.4830    7.3220    2.6650 C.ar  161  TYR161      0.0417
     35  CE2       51.3500    7.6820    4.1040 C.ar  161  TYR161      0.0417
     36  CZ        50.3410    8.1880    3.3300 C.ar  161  TYR161      0.1957
     37  OH        50.2040    9.5590    3.2460 O.3   161  TYR161     -0.2866
     38  N         52.5830    1.1860    6.3470 N.3   183  GLY183     -0.1210
     39  CA        51.9810   -0.0340    5.8040 C.3   183  GLY183      0.1956
     40  C         51.9860   -0.0100    4.2810 C.2   183  GLY183      0.2612
     41  O         52.5520    0.9130    3.6910 O.2   183  GLY183     -0.2717
     42  N         51.3800   -1.0090    3.6300 N.am  184  SER184     -0.1952
     43  CA        50.7220   -2.1330    4.3070 C.3   184  SER184      0.1924
     44  C         51.6250   -3.1400    5.0310 C.2   184  SER184      0.2314
     45  O         51.1140   -3.9310    5.8230 O.2   184  SER184     -0.2863
     46  CB        49.8270   -2.8870    3.3280 C.3   184  SER184      0.2116
     47  OG        50.5360   -3.2140    2.1500 O.3   184  SER184     -0.2180
     48  N         52.9870   -2.3520   -3.8410 N.3   205  ILE205     -0.1231
     49  CA        52.3240   -2.0060   -5.1020 C.3   205  ILE205      0.1692
     50  C         52.2630   -0.4760   -5.3270 C.2   205  ILE205      0.2593
     51  O         52.0800   -0.0050   -6.4450 O.2   205  ILE205     -0.2718
     52  CB        50.9060   -2.6510   -5.1720 C.3   205  ILE205      0.0266
     53  CG1       50.5010   -2.8860   -6.6340 C.3   205  ILE205      0.0019
     54  CG2       49.9010   -1.8140   -4.4040 C.3   205  ILE205      0.0020
     55  CD1       49.1430   -3.4080   -6.7910 C.3   205  ILE205      0.0001
     56  N         52.4120    0.2910   -4.2500 N.am  206  GLY206     -0.1942
     57  CA        52.4790    1.7560   -4.3080 C.3   206  GLY206      0.2014
     58  C         53.2970    2.3450   -3.1810 C.2   206  GLY206      0.2639
     59  O         53.0830    3.4980   -2.8350 O.2   206  GLY206     -0.2714
     60  N         54.2240    1.5580   -2.6120 N.am  207  GLY207     -0.1939
     61  CA        55.0590    1.9750   -1.4670 C.3   207  GLY207      0.2014
     62  C         55.1010    1.0810   -0.2270 C.2   207  GLY207      0.2639
     63  O         55.8270    1.3790    0.7140 O.2   207  GLY207     -0.2714
     64  N         54.3830   -0.0380   -0.2450 N.am  208  SER208     -0.1949
     65  CA        54.1240   -0.8360    0.9660 C.3   208  SER208      0.1924
     66  C         55.2800   -1.6630    1.5770 C.2   208  SER208      0.2314
     67  O         55.1480   -2.2090    2.6790 O.2   208  SER208     -0.2863
     68  CB        52.9120   -1.7390    0.7220 C.3   208  SER208      0.2116
     69  OG        51.7690   -0.9530    0.4270 O.3   208  SER208     -0.2180
     70  N         57.2270    2.4490    2.7390 N.3   211  PHE211     -0.1241
     71  CA        56.6630    3.2500    3.8150 C.3   211  PHE211      0.1605
     72  C         57.0690    2.7490    5.2080 C.2   211  PHE211      0.2264
     73  O         57.6370    3.5080    5.9900 O.2   211  PHE211     -0.2867
     74  CB        55.1230    3.3300    3.7400 C.3   211  PHE211      0.0534
     75  CG        54.5880    4.1520    2.5880 C.ar  211  PHE211     -0.0203
     76  CD1       54.8570    5.5110    2.4890 C.ar  211  PHE211     -0.0042
     77  CD2       53.7780    3.5700    1.6210 C.ar  211  PHE211     -0.0042
     78  CE1       54.3490    6.2670    1.4240 C.ar  211  PHE211     -0.0003
     79  CE2       53.2660    4.3130    0.5790 C.ar  211  PHE211     -0.0003
     80  CZ        53.5550    5.6640    0.4790 C.ar  211  PHE211     -0.0000
     81  N         46.8360    5.6300  -10.9690 N.3   344  THR344     -0.1218
     82  CA        45.5010    5.5710  -10.3790 C.3   344  THR344      0.1862
     83  C         44.5390    4.7780  -11.2770 C.2   344  THR344      0.2287
     84  O         43.7150    3.9700  -10.7800 O.2   344  THR344     -0.2866
     85  CB        44.9520    6.9970  -10.1320 C.3   344  THR344      0.1770
     86  OG1       45.7740    7.6700   -9.1720 O.3   344  THR344     -0.2211
     87  CG2       43.5200    6.9510   -9.6320 C.3   344  THR344      0.0375
     88  N         45.3900    1.0470  -11.0230 N.3   347  LEU347     -0.1231
     89  CA        44.8990    0.4250   -9.7990 C.3   347  LEU347      0.1693
     90  C         43.3580    0.3730   -9.7150 C.2   347  LEU347      0.2592
     91  O         42.8100   -0.4850   -9.0360 O.2   347  LEU347     -0.2718
     92  CB        45.4790    1.1460   -8.5850 C.3   347  LEU347      0.0284
     93  CG        47.0120    1.0920   -8.4470 C.3   347  LEU347      0.0019
     94  CD1       47.5310    2.2830   -7.6550 C.3   347  LEU347      0.0001
     95  CD2       47.4750   -0.2210   -7.8150 C.3   347  LEU347      0.0001
     96  N         42.6620    1.2690  -10.4140 N.am  348  PHE348     -0.1976
     97  CA        41.1970    1.3790  -10.2910 C.3   348  PHE348      0.1639
     98  C         40.4890    1.4130  -11.6520 C.2   348  PHE348      0.2290
     99  O         39.4530    2.0640  -11.8170 O.2   348  PHE348     -0.2864
    100  CB        40.8380    2.6370   -9.4850 C.3   348  PHE348      0.0560
    101  CG        41.2430    2.5690   -8.0340 C.ar  348  PHE348     -0.0200
    102  CD1       40.4410    1.9170   -7.1110 C.ar  348  PHE348     -0.0042
    103  CD2       42.4250    3.1640   -7.5940 C.ar  348  PHE348     -0.0042
    104  CE1       40.8070    1.8480   -5.7770 C.ar  348  PHE348     -0.0003
    105  CE2       42.8050    3.1000   -6.2520 C.ar  348  PHE348     -0.0003
    106  CZ        41.9950    2.4350   -5.3430 C.ar  348  PHE348     -0.0000
    107  N         38.1900    6.1420    1.3670 N.3   371  LEU371     -0.1245
    108  CA        38.4130    5.4370    0.1300 C.3   371  LEU371      0.1561
    109  C         37.1530    4.6750   -0.2470 C.2   371  LEU371      0.2260
    110  O         36.6930    4.7700   -1.3720 O.2   371  LEU371     -0.2867
    111  CB        39.5810    4.4800    0.2590 C.3   371  LEU371      0.0270
    112  CG        39.9540    3.7640   -1.0300 C.3   371  LEU371      0.0019
    113  CD1       40.0550    4.7380   -2.1780 C.3   371  LEU371      0.0001
    114  CD2       41.2520    3.0030   -0.8680 C.3   371  LEU371      0.0001
    115  N         42.4850   12.6710   -9.4970 N.3   399  PHE399     -0.1241
    116  CA        42.3790   11.2930   -8.9610 C.3   399  PHE399      0.1605
    117  C         40.9820   10.7180   -9.1280 C.2   399  PHE399      0.2264
    118  O         40.8180    9.6220   -9.6440 O.2   399  PHE399     -0.2867
    119  CB        42.7570   11.2410   -7.4640 C.3   399  PHE399      0.0534
    120  CG        44.2390   11.0920   -7.2090 C.ar  399  PHE399     -0.0203
    121  CD1       45.1120   12.1330   -7.4830 C.ar  399  PHE399     -0.0042
    122  CD2       44.7560    9.9040   -6.6970 C.ar  399  PHE399     -0.0042
    123  CE1       46.4610   11.9820   -7.2600 C.ar  399  PHE399     -0.0003
    124  CE2       46.1000    9.7570   -6.4680 C.ar  399  PHE399     -0.0003
    125  CZ        46.9570   10.8010   -6.7510 C.ar  399  PHE399     -0.0000
    126  N         39.4030    7.2680  -11.1850 N.3   403  MET403     -0.1245
    127  CA        38.9830    6.0690  -10.4650 C.3   403  MET403      0.1570
    128  C         37.6030    5.5970  -10.9680 C.2   403  MET403      0.2261
    129  O         36.7740    5.0770  -10.2120 O.2   403  MET403     -0.2867
    130  CB        38.9740    6.3610   -8.9680 C.3   403  MET403      0.0387
    131  CG        40.3690    6.5670   -8.3790 C.3   403  MET403      0.0595
    132  SD        40.3380    7.4460   -6.7910 S.3   403  MET403     -0.1393
    133  CE        40.1470    6.1540   -5.5660 C.3   403  MET403      0.0692
    134  N         46.6060   10.9120    0.6590 N.3   455  THR455     -0.1218
    135  CA        46.9120   10.0220   -0.4710 C.3   455  THR455      0.1862
    136  C         47.9760   10.6100   -1.4050 C.2   455  THR455      0.2287
    137  O         48.7540    9.8690   -1.9940 O.2   455  THR455     -0.2866
    138  CB        45.6060    9.6030   -1.2300 C.3   455  THR455      0.1770
    139  OG1       44.9360    8.5900   -0.4690 O.3   455  THR455     -0.2211
    140  CG2       45.8740    9.0220   -2.6080 C.3   455  THR455      0.0375
    141  N         51.7300    9.6170   -1.5670 N.3   458  VAL458     -0.1245
    142  CA        52.1190    8.4070   -2.2520 C.3   458  VAL458      0.1561
    143  C         53.1070    8.6780   -3.4180 C.2   458  VAL458      0.2260
    144  O         53.8150    7.7790   -3.8750 O.2   458  VAL458     -0.2867
    145  CB        50.8450    7.6520   -2.7120 C.3   458  VAL458      0.0252
    146  CG1       51.1930    6.5580   -3.6410 C.3   458  VAL458      0.0019
    147  CG2       50.0840    7.0910   -1.5010 C.3   458  VAL458      0.0019
    148  N         55.1210    5.5560   -5.2440 N.3   462  MET462     -0.1245
    149  CA        54.3310    4.9670   -6.3270 C.3   462  MET462      0.1570
    150  C         54.8680    5.2580   -7.7360 C.2   462  MET462      0.2261
    151  O         54.6980    4.4370   -8.6590 O.2   462  MET462     -0.2867
    152  CB        52.8870    5.4220   -6.2240 C.3   462  MET462      0.0387
    153  CG        52.0310    5.1110   -7.4450 C.3   462  MET462      0.0595
    154  SD        50.3370    4.8670   -6.9460 S.3   462  MET462     -0.1393
    155  CE        50.4990    3.1440   -6.4860 C.3   462  MET462      0.0692
@<TRIPOS>BOND
     1    99    98    2
     2    98    97    1
     3    83    84    2
     4    83    82    1
     5   126   127    1
     6    88    89    1
     7    81    82    1
     8   128   127    1
     9   128   129    2
    10   127   130    1
    11    96    97    1
    12    96    90   am
    13    82    85    1
    14    97   100    1
    15    85    87    1
    16    85    86    1
    17    89    90    1
    18    89    92    1
    19    90    91    2
    20   118   117    2
    21   115   116    1
    22   100   101    1
    23   117   116    1
    24   130   131    1
    25   116   119    1
    26   151   150    2
    27    92    93    1
    28    93    95    1
    29    93    94    1
    30   131   132    1
    31   101   103   ar
    32   101   102   ar
    33   150   149    1
    34   103   105   ar
    35   121   123   ar
    36   121   120   ar
    37   119   120    1
    38   153   154    1
    39   153   152    1
    40   123   125   ar
    41   120   122   ar
    42   102   104   ar
    43   154   155    1
    44   132   133    1
    45    55    53    1
    46   125   124   ar
    47   122   124   ar
    48    53    52    1
    49    51    50    2
    50   149   152    1
    51   149   148    1
    52   105   106   ar
    53   104   106   ar
    54    50    49    1
    55    50    56   am
    56    52    49    1
    57    52    54    1
    58    49    48    1
    59    57    56    1
    60    57    58    1
    61    19    17   ar
    62    19    18   ar
    63   144   143    2
    64    17    15   ar
    65   146   145    1
    66   143   142    1
    67    58    59    2
    68    58    60   am
    69    18    16   ar
    70   145   142    1
    71   145   147    1
    72    15    14   ar
    73    60    61    1
    74   140   138    1
    75   142   141    1
    76   113   112    1
    77   137   136    2
    78    16    14   ar
    79    14    13    1
    80    61    62    1
    81   136   135    1
    82   110   109    2
    83   138   135    1
    84   138   139    1
    85   112   114    1
    86   112   111    1
    87   135   134    1
    88    13    10    1
    89   109   108    1
    90    64    62   am
    91    64    65    1
    92    62    63    2
    93   108   111    1
    94   108   107    1
    95    69    68    1
    96    80    79   ar
    97    80    78   ar
    98    79    77   ar
    99    10     9    1
   100    10    11    1
   101    68    65    1
   102     8     7    1
   103    65    66    1
   104    12    11    2
   105     4     3    2
   106     9     3   am
   107    11    20   am
   108    78    76   ar
   109    66    67    2
   110    77    75   ar
   111     3     2    1
   112     5     2    1
   113     5     6    1
   114     7     6    1
   115    47    46    1
   116    20    21    1
   117     2     1    1
   118    76    75   ar
   119    75    74    1
   120    34    32   ar
   121    34    36   ar
   122    70    71    1
   123    32    31   ar
   124    21    22    1
   125    21    24    1
   126    37    36    1
   127    46    43    1
   128    36    35   ar
   129    31    30    1
   130    31    33   ar
   131    22    23    2
   132    22    26   am
   133    42    40   am
   134    42    43    1
   135    30    27    1
   136    41    40    2
   137    74    71    1
   138    71    72    1
   139    26    27    1
   140    35    33   ar
   141    40    39    1
   142    43    44    1
   143    24    25    1
   144    27    28    1
   145    44    45    2
   146    72    73    2
   147    39    38    1
   148    28    29    2
