@<TRIPOS>MOLECULE
tmp/2vywA00.pdb
 259 252 0 0 0
SMALL
GASTEIGER

@<TRIPOS>ATOM
      1  N          0.7640   -3.5090   -2.9060 N.3    33  TYR33      -0.1241
      2  CA         0.3820   -2.7300   -4.0870 C.3    33  TYR33       0.1605
      3  C         -0.5270   -3.4600   -5.0870 C.2    33  TYR33       0.2264
      4  O         -1.4380   -2.8510   -5.6360 O.2    33  TYR33      -0.2867
      5  CB         1.6110   -2.1810   -4.8030 C.3    33  TYR33       0.0534
      6  CG         2.2340   -1.0160   -4.0940 C.ar   33  TYR33      -0.0201
      7  CD1        1.5730    0.2090   -4.0010 C.ar   33  TYR33      -0.0009
      8  CD2        3.5000   -1.1300   -3.5330 C.ar   33  TYR33      -0.0009
      9  CE1        2.1580    1.2880   -3.3450 C.ar   33  TYR33       0.0417
     10  CE2        4.0900   -0.0740   -2.8850 C.ar   33  TYR33       0.0417
     11  CZ         3.4220    1.1360   -2.7910 C.ar   33  TYR33       0.1957
     12  OH         4.0260    2.1920   -2.1400 O.3    33  TYR33      -0.2866
     13  N         -3.8620   -3.0760   -3.5450 N.3    36  LEU36      -0.1245
     14  CA        -4.2850   -1.6700   -3.6110 C.3    36  LEU36       0.1561
     15  C         -4.7340   -1.2890   -5.0140 C.2    36  LEU36       0.2260
     16  O         -5.7640   -0.6420   -5.1830 O.2    36  LEU36      -0.2867
     17  CB        -3.1550   -0.7300   -3.1390 C.3    36  LEU36       0.0270
     18  CG        -3.4620    0.7790   -3.1260 C.3    36  LEU36       0.0019
     19  CD1       -4.5970    1.1000   -2.1610 C.3    36  LEU36       0.0001
     20  CD2       -2.2350    1.6080   -2.7710 C.3    36  LEU36       0.0001
     21  N         -5.1950    4.7880   -8.8040 N.3    43  TYR43      -0.1241
     22  CA        -4.0370    5.1720   -7.9720 C.3    43  TYR43       0.1605
     23  C         -2.6780    4.8640   -8.6160 C.2    43  TYR43       0.2264
     24  O         -1.6660    5.4300   -8.2130 O.2    43  TYR43      -0.2867
     25  CB        -4.0780    4.5200   -6.5810 C.3    43  TYR43       0.0534
     26  CG        -5.2310    4.9310   -5.6750 C.ar   43  TYR43      -0.0201
     27  CD1       -6.1470    5.9250   -6.0510 C.ar   43  TYR43      -0.0009
     28  CD2       -5.3930    4.3250   -4.4350 C.ar   43  TYR43      -0.0009
     29  CE1       -7.2000    6.2910   -5.2000 C.ar   43  TYR43       0.0417
     30  CE2       -6.4290    4.6840   -3.5830 C.ar   43  TYR43       0.0417
     31  CZ        -7.3290    5.6570   -3.9710 C.ar   43  TYR43       0.1957
     32  OH        -8.3510    5.9890   -3.1170 O.3    43  TYR43      -0.2866
     33  N         -0.7960    7.8150   -9.7260 N.3    46  TYR46      -0.1227
     34  CA        -0.3460    8.7380   -8.6760 C.3    46  TYR46       0.1736
     35  C          1.1580    8.6810   -8.4840 C.2    46  TYR46       0.2595
     36  O          1.7390    9.6000   -7.9140 O.2    46  TYR46      -0.2718
     37  CB        -0.9970    8.3940   -7.3430 C.3    46  TYR46       0.0548
     38  CG        -2.4530    8.7360   -7.2150 C.ar   46  TYR46      -0.0200
     39  CD1       -3.2120    9.1560   -8.3130 C.ar   46  TYR46      -0.0009
     40  CD2       -3.0890    8.6070   -5.9850 C.ar   46  TYR46      -0.0009
     41  CE1       -4.5570    9.4660   -8.1700 C.ar   46  TYR46       0.0417
     42  CE2       -4.4210    8.9050   -5.8400 C.ar   46  TYR46       0.0417
     43  CZ        -5.1460    9.3380   -6.9150 C.ar   46  TYR46       0.1957
     44  OH        -6.4770    9.6200   -6.7170 O.3    46  TYR46      -0.2866
     45  N          1.7770    7.5860   -8.9290 N.am   47  PHE47      -0.1962
     46  CA         3.1830    7.3210   -8.6420 C.3    47  PHE47       0.1771
     47  C          4.0670    7.6930   -9.8250 C.2    47  PHE47       0.2620
     48  O          3.8520    7.2320  -10.9500 O.2    47  PHE47      -0.2715
     49  CB         3.3920    5.8530   -8.2540 C.3    47  PHE47       0.0574
     50  CG         2.7170    5.4580   -6.9600 C.ar   47  PHE47      -0.0200
     51  CD1        1.3530    5.1520   -6.9290 C.ar   47  PHE47      -0.0042
     52  CD2        3.4520    5.3670   -5.7840 C.ar   47  PHE47      -0.0042
     53  CE1        0.7250    4.7820   -5.7410 C.ar   47  PHE47      -0.0003
     54  CE2        2.8430    4.9980   -4.5860 C.ar   47  PHE47      -0.0003
     55  CZ         1.4740    4.7000   -4.5630 C.ar   47  PHE47      -0.0000
     56  N          5.0700    8.5270   -9.5560 N.am   48  SER48      -0.1936
     57  CA         5.9220    9.0800  -10.6140 C.3    48  SER48       0.2055
     58  C          6.6250    8.0160  -11.4490 C.2    48  SER48       0.2642
     59  O          6.8120    8.1980  -12.6560 O.2    48  SER48      -0.2714
     60  CB         6.9400   10.0490  -10.0190 C.3    48  SER48       0.2130
     61  OG         7.8200    9.3480   -9.1730 O.3    48  SER48      -0.2179
     62  N          6.9810    6.8950  -10.8180 N.am   49  LYS49      -0.1977
     63  CA         7.6590    5.8000  -11.5160 C.3    49  LYS49       0.1596
     64  C          6.7140    4.7830  -12.1520 C.2    49  LYS49       0.2287
     65  O          7.1680    3.8180  -12.7690 O.2    49  LYS49      -0.2864
     66  CB         8.6360    5.0990  -10.5780 C.3    49  LYS49       0.0298
     67  CG         9.7820    5.9830  -10.1270 C.3    49  LYS49       0.0038
     68  CD        10.6750    5.2560   -9.1200 C.3    49  LYS49       0.0206
     69  CE        11.9050    6.0770   -8.7680 C.3    49  LYS49       0.1093
     70  NZ        11.6270    7.1190   -7.7430 N.3    49  LYS49      -0.1314
     71  N         10.3630   -0.8040   -6.9950 N.3    66  TYR66      -0.1227
     72  CA        10.8690    0.3740   -6.3020 C.3    66  TYR66       0.1736
     73  C          9.9810    0.7310   -5.1000 C.2    66  TYR66       0.2595
     74  O         10.4680    0.8280   -3.9760 O.2    66  TYR66      -0.2718
     75  CB        11.0380    1.5940   -7.2270 C.3    66  TYR66       0.0548
     76  CG        11.4410    2.8340   -6.4500 C.ar   66  TYR66      -0.0200
     77  CD1       12.7870    3.1680   -6.2680 C.ar   66  TYR66      -0.0009
     78  CD2       10.4780    3.6410   -5.8510 C.ar   66  TYR66      -0.0009
     79  CE1       13.1560    4.3060   -5.5190 C.ar   66  TYR66       0.0417
     80  CE2       10.8290    4.7640   -5.1020 C.ar   66  TYR66       0.0417
     81  CZ        12.1630    5.0960   -4.9450 C.ar   66  TYR66       0.1957
     82  OH        12.4830    6.2150   -4.1960 O.3    66  TYR66      -0.2866
     83  N          8.6820    0.9130   -5.3360 N.am   67  TYR67      -0.1976
     84  CA         7.7800    1.3080   -4.2520 C.3    67  TYR67       0.1639
     85  C          7.5250    0.1820   -3.2760 C.2    67  TYR67       0.2290
     86  O          7.3250    0.4270   -2.0890 O.2    67  TYR67      -0.2864
     87  CB         6.4580    1.8490   -4.7920 C.3    67  TYR67       0.0560
     88  CG         6.6430    3.0880   -5.6180 C.ar   67  TYR67      -0.0198
     89  CD1        7.0560    4.2840   -5.0240 C.ar   67  TYR67      -0.0009
     90  CD2        6.4260    3.0670   -6.9970 C.ar   67  TYR67      -0.0009
     91  CE1        7.2390    5.4360   -5.7810 C.ar   67  TYR67       0.0417
     92  CE2        6.6030    4.2170   -7.7690 C.ar   67  TYR67       0.0417
     93  CZ         7.0120    5.3920   -7.1510 C.ar   67  TYR67       0.1957
     94  OH         7.1920    6.5350   -7.9000 O.3    67  TYR67      -0.2866
     95  N         10.3040    0.4330   -0.7400 N.3    70  THR70      -0.1203
     96  CA        10.1540    1.6180    0.1260 C.3    70  THR70       0.1994
     97  C          8.9830    1.4420    1.1010 C.2    70  THR70       0.2617
     98  O          9.1330    1.7000    2.2950 O.2    70  THR70      -0.2717
     99  CB        10.0230    2.9560   -0.6470 C.3    70  THR70       0.1784
    100  OG1        8.9060    2.9090   -1.5450 O.3    70  THR70      -0.2211
    101  CG2       11.2990    3.2490   -1.4410 C.3    70  THR70       0.0376
    102  N          7.8430    0.9830    0.5860 N.am   71  LEU71      -0.1979
    103  CA         6.6690    0.7220    1.4110 C.3    71  LEU71       0.1596
    104  C          6.9550   -0.3200    2.4860 C.2    71  LEU71       0.2287
    105  O          6.6530   -0.1050    3.6580 O.2    71  LEU71      -0.2864
    106  CB         5.4960    0.2340    0.5450 C.3    71  LEU71       0.0297
    107  CG         4.1900    0.0100    1.3170 C.3    71  LEU71       0.0022
    108  CD1        3.6820    1.3050    1.8900 C.3    71  LEU71       0.0001
    109  CD2        3.1050   -0.6640    0.4680 C.3    71  LEU71       0.0001
    110  N          9.3820    0.9640    5.1830 N.3    74  GLU74      -0.1231
    111  CA         8.7200    1.9480    6.0470 C.3    74  GLU74       0.1699
    112  C          7.7070    1.3160    7.0000 C.2    74  GLU74       0.2592
    113  O          7.6220    1.6940    8.1710 O.2    74  GLU74      -0.2718
    114  CB         8.0800    3.0820    5.2200 C.3    74  GLU74       0.0402
    115  CG         7.5460    4.2530    6.0920 C.3    74  GLU74       0.1161
    116  CD         8.5990    4.8350    7.0410 C.2    74  GLU74       0.3649
    117  OE1        9.7970    4.8640    6.6790 O.co2  74  GLU74      -0.2457
    118  OE2        8.2230    5.2940    8.1480 O.co2  74  GLU74      -0.2457
    119  N          6.9370    0.3510    6.5080 N.am   75  LEU75      -0.1980
    120  CA         5.9920   -0.3610    7.3650 C.3    75  LEU75       0.1596
    121  C          6.6930   -1.0540    8.5360 C.2    75  LEU75       0.2287
    122  O          6.2210   -1.0010    9.6760 O.2    75  LEU75      -0.2864
    123  CB         5.1480   -1.3480    6.5520 C.3    75  LEU75       0.0297
    124  CG         4.0700   -0.6950    5.6880 C.3    75  LEU75       0.0022
    125  CD1        3.5580   -1.6730    4.6170 C.3    75  LEU75       0.0001
    126  CD2        2.9020   -0.1870    6.5650 C.3    75  LEU75       0.0001
    127  N          9.6350   -0.1180    9.7380 N.3    77  ARG77      -0.1231
    128  CA        10.0860    1.0070   10.5630 C.3    77  ARG77       0.1694
    129  C          8.9820    1.4620   11.5080 C.2    77  ARG77       0.2591
    130  O          9.2260    1.6670   12.6980 O.2    77  ARG77      -0.2718
    131  CB        10.5390    2.2020    9.7160 C.3    77  ARG77       0.0321
    132  CG        11.9160    2.0650    9.1240 C.3    77  ARG77       0.0489
    133  CD        12.4530    3.4060    8.6550 C.3    77  ARG77       0.2205
    134  NE        13.4790    3.2070    7.6370 N.pl3  77  ARG77      -0.0865
    135  CZ        13.2440    3.1730    6.3280 C.cat  77  ARG77       0.5346
    136  NH1       12.0110    3.3510    5.8560 N.pl3  77  ARG77       0.1354
    137  NH2       14.2450    2.9660    5.4920 N.pl3  77  ARG77       0.1354
    138  N          7.7690    1.6230   10.9790 N.am   78  LEU78      -0.1980
    139  CA         6.6480    2.0820   11.7940 C.3    78  LEU78       0.1596
    140  C          6.3640    1.0880   12.9080 C.2    78  LEU78       0.2287
    141  O          6.1970    1.4720   14.0630 O.2    78  LEU78      -0.2864
    142  CB         5.3940    2.2750   10.9350 C.3    78  LEU78       0.0297
    143  CG         5.3570    3.5650   10.1220 C.3    78  LEU78       0.0022
    144  CD1        4.3980    3.4020    8.9560 C.3    78  LEU78       0.0001
    145  CD2        4.9560    4.7600   10.9910 C.3    78  LEU78       0.0001
    146  N          6.0340   10.2350    7.3020 N.3    95  GLY95      -0.1225
    147  CA         4.8570    9.8280    6.5480 C.3    95  GLY95       0.1811
    148  C          4.1880   11.0040    5.8660 C.2    95  GLY95       0.2280
    149  O          3.8940   10.9560    4.6740 O.2    95  GLY95      -0.2866
    150  N          6.3150   12.3240    3.1140 N.3    98  ASP98      -0.1225
    151  CA         6.2260   11.3950    1.9830 C.3    98  ASP98       0.1805
    152  C          4.9670   11.5420    1.1090 C.2    98  ASP98       0.2597
    153  O          5.0110   11.2200   -0.0890 O.2    98  ASP98      -0.2718
    154  CB         6.3750    9.9520    2.4570 C.3    98  ASP98       0.1424
    155  CG         7.8100    9.6110    2.8300 C.2    98  ASP98       0.3668
    156  OD1        8.7190   10.3750    2.4470 O.co2  98  ASP98      -0.2456
    157  OD2        8.0260    8.5850    3.4980 O.co2  98  ASP98      -0.2456
    158  N          3.8730   12.0240    1.7090 N.am   99  HIS99      -0.1975
    159  CA         2.5480   12.0390    1.0690 C.3    99  HIS99       0.1656
    160  C          1.9270   13.4180    0.8530 C.2    99  HIS99       0.2291
    161  O          0.9740   13.5560    0.0950 O.2    99  HIS99      -0.2864
    162  CB         1.5770   11.1260    1.8240 C.3    99  HIS99       0.0771
    163  CG         2.0130    9.6980    1.8510 C.ar   99  HIS99       0.0820
    164  ND1        2.8110    9.1830    2.8500 N.ar   99  HIS99      -0.2267
    165  CD2        1.8170    8.6910    0.9690 C.ar   99  HIS99       0.1154
    166  CE1        3.0580    7.9100    2.6000 C.ar   99  HIS99       0.1986
    167  NE2        2.4750    7.5880    1.4610 N.ar   99  HIS99      -0.2212
    168  N          1.1220   15.4570   -2.9990 N.3   102  ARG102     -0.1231
    169  CA         1.1060   14.2990   -3.8790 C.3   102  ARG102      0.1679
    170  C         -0.2970   14.1010   -4.4230 C.2   102  ARG102      0.2434
    171  O         -1.2510   14.7040   -3.9110 O.2   102  ARG102     -0.2733
    172  CB         1.6190   13.0610   -3.1320 C.3   102  ARG102      0.0321
    173  CG         3.1320   13.0450   -2.9860 C.3   102  ARG102      0.0489
    174  CD         3.7540   12.6680   -4.3250 C.3   102  ARG102      0.2205
    175  NE         5.0120   13.3380   -4.6340 N.pl3 102  ARG102     -0.0865
    176  CZ         6.1730   13.1140   -4.0280 C.cat 102  ARG102      0.5346
    177  NH1        6.2640   12.2530   -3.0230 N.pl3 102  ARG102      0.1354
    178  NH2        7.2470   13.7800   -4.4180 N.pl3 102  ARG102      0.1354
    179  N         -0.4380   13.3020   -5.4980 N.am  103  PRO103     -0.2718
    180  CA        -1.7780   13.1650   -6.0400 C.3   103  PRO103      0.1535
    181  C         -2.7610   12.5070   -5.0660 C.2   103  PRO103      0.2598
    182  O         -3.9690   12.6700   -5.2270 O.2   103  PRO103     -0.2715
    183  CB        -1.5570   12.3200   -7.3090 C.3   103  PRO103      0.0310
    184  CG        -0.1020   12.5540   -7.6530 C.3   103  PRO103      0.0237
    185  CD         0.5460   12.5600   -6.3050 C.3   103  PRO103      0.0939
    186  N         -2.2600   11.8010   -4.0490 N.am  104  VAL104     -0.1978
    187  CA        -3.1410   11.1860   -3.0420 C.3   104  VAL104      0.1596
    188  C         -3.6880   12.2070   -2.0290 C.2   104  VAL104      0.2287
    189  O         -2.9530   13.0740   -1.5420 O.2   104  VAL104     -0.2864
    190  CB        -2.4630    9.9880   -2.3310 C.3   104  VAL104      0.0276
    191  CG1       -1.2060   10.4190   -1.5540 C.3   104  VAL104      0.0022
    192  CG2       -3.4530    9.2730   -1.4320 C.3   104  VAL104      0.0022
    193  N         -8.4010    9.5860    0.6470 N.3   108  GLN108     -0.1231
    194  CA        -7.9480    8.3990   -0.0720 C.3   108  GLN108      0.1698
    195  C         -6.9160    7.6370    0.7620 C.2   108  GLN108      0.2592
    196  O         -6.9010    6.3990    0.7710 O.2   108  GLN108     -0.2718
    197  CB        -7.3670    8.7860   -1.4220 C.3   108  GLN108      0.0381
    198  CG        -8.4200    9.2510   -2.4190 C.3   108  GLN108      0.0905
    199  CD        -7.8240    9.8700   -3.6540 C.2   108  GLN108      0.2608
    200  OE1       -6.6880   10.3470   -3.6500 O.2   108  GLN108     -0.2717
    201  NE2       -8.5970    9.8780   -4.7290 N.am  108  GLN108     -0.0878
    202  N         -6.0800    8.3840    1.4830 N.am  109  PHE109     -0.1976
    203  CA        -5.0440    7.7880    2.3190 C.3   109  PHE109      0.1639
    204  C         -5.6750    6.9680    3.4470 C.2   109  PHE109      0.2290
    205  O         -5.4280    5.7670    3.5670 O.2   109  PHE109     -0.2864
    206  CB        -4.1010    8.8600    2.8750 C.3   109  PHE109      0.0560
    207  CG        -2.8460    8.2990    3.4900 C.ar  109  PHE109     -0.0200
    208  CD1       -1.7360    8.0290    2.6990 C.ar  109  PHE109     -0.0042
    209  CD2       -2.7850    8.0340    4.8550 C.ar  109  PHE109     -0.0042
    210  CE1       -0.5860    7.4920    3.2500 C.ar  109  PHE109     -0.0003
    211  CE2       -1.6370    7.5050    5.4330 C.ar  109  PHE109     -0.0003
    212  CZ        -0.5300    7.2270    4.6260 C.ar  109  PHE109     -0.0000
    213  N         -7.6950    3.8930    2.4450 N.3   112  ALA112     -0.1245
    214  CA        -6.9610    2.7180    2.0000 C.3   112  ALA112      0.1562
    215  C         -6.5040    1.8550    3.1690 C.2   112  ALA112      0.2260
    216  O         -6.0290    0.7350    2.9600 O.2   112  ALA112     -0.2867
    217  CB        -5.7760    3.1280    1.1340 C.3   112  ALA112      0.0290
    218  N         -4.5100   -2.2240    3.7330 N.3   116  PHE116     -0.1241
    219  CA        -3.2500   -2.5520    4.4020 C.3   116  PHE116      0.1605
    220  C         -3.4840   -3.4620    5.5860 C.2   116  PHE116      0.2264
    221  O         -2.7390   -4.4210    5.8060 O.2   116  PHE116     -0.2867
    222  CB        -2.5630   -1.2800    4.8930 C.3   116  PHE116      0.0534
    223  CG        -1.9060   -0.5010    3.8080 C.ar  116  PHE116     -0.0203
    224  CD1       -2.6620    0.1470    2.8410 C.ar  116  PHE116     -0.0042
    225  CD2       -0.5190   -0.4130    3.7480 C.ar  116  PHE116     -0.0042
    226  CE1       -2.0420    0.8720    1.8210 C.ar  116  PHE116     -0.0003
    227  CE2        0.1040    0.3110    2.7400 C.ar  116  PHE116     -0.0003
    228  CZ        -0.6380    0.9460    1.7800 C.ar  116  PHE116     -0.0000
    229  N         -2.2340    0.3250   12.6110 N.3   137  LEU137     -0.1245
    230  CA        -2.2450    0.9350   11.2880 C.3   137  LEU137      0.1561
    231  C         -3.3300    2.0010   11.1400 C.2   137  LEU137      0.2260
    232  O         -3.1080    3.0120   10.4860 O.2   137  LEU137     -0.2867
    233  CB        -2.3650   -0.1170   10.1850 C.3   137  LEU137      0.0270
    234  CG        -1.1220   -0.9790    9.9350 C.3   137  LEU137      0.0019
    235  CD1       -1.4640   -2.0480    8.9080 C.3   137  LEU137      0.0001
    236  CD2        0.1210   -0.1570    9.4950 C.3   137  LEU137      0.0001
    237  N         -1.8750    5.0790   12.9020 N.3   140  VAL140     -0.1231
    238  CA        -0.7580    5.6330   12.1460 C.3   140  VAL140      0.1692
    239  C         -1.2400    6.3780   10.9110 C.2   140  VAL140      0.2591
    240  O         -0.7920    7.4920   10.6460 O.2   140  VAL140     -0.2718
    241  CB         0.2780    4.5200   11.7780 C.3   140  VAL140      0.0266
    242  CG1        1.1220    4.8930   10.5540 C.3   140  VAL140      0.0020
    243  CG2        1.1550    4.2160   12.9900 C.3   140  VAL140      0.0020
    244  N         -2.1530    5.7650   10.1610 N.am  141  MET141     -0.1979
    245  CA        -2.5830    6.3220    8.8910 C.3   141  MET141      0.1605
    246  C         -3.4800    7.5520    9.1260 C.2   141  MET141      0.2287
    247  O         -3.4310    8.5200    8.3770 O.2   141  MET141     -0.2864
    248  CB        -3.2330    5.2460    8.0190 C.3   141  MET141      0.0413
    249  CG        -2.2460    4.1280    7.6050 C.3   141  MET141      0.0598
    250  SD        -2.9160    2.8910    6.4650 S.3   141  MET141     -0.1393
    251  CE        -3.0450    3.8760    4.9650 C.3   141  MET141      0.0692
    252  N         -0.8540   10.3350   10.0900 N.3   144  ILE144     -0.1245
    253  CA        -0.1960   10.8080    8.8740 C.3   144  ILE144      0.1561
    254  C         -1.1370   11.7230    8.0860 C.2   144  ILE144      0.2260
    255  O         -0.7480   12.8200    7.7090 O.2   144  ILE144     -0.2867
    256  CB         0.3200    9.6270    7.9830 C.3   144  ILE144      0.0252
    257  CG1        1.5100    8.9240    8.6600 C.3   144  ILE144      0.0019
    258  CG2        0.7150   10.1390    6.5780 C.3   144  ILE144      0.0019
    259  CD1        2.0260    7.6430    7.9230 C.3   144  ILE144      0.0001
@<TRIPOS>BOND
     1    65    64    2
     2    59    58    2
     3    64    63    1
     4    63    62    1
     5    63    66    1
     6    58    62   am
     7    58    57    1
     8    48    47    2
     9    57    60    1
    10    57    56    1
    11    66    67    1
    12    67    68    1
    13    60    61    1
    14    47    56   am
    15    47    46    1
    16    33    34    1
    17    68    69    1
    18    45    46    1
    19    45    35   am
    20    21    22    1
    21    69    70    1
    22    34    35    1
    23    34    37    1
    24    46    49    1
    25    23    24    2
    26    23    22    1
    27    35    36    2
    28    39    41   ar
    29    39    38   ar
    30    49    50    1
    31    41    43   ar
    32    22    25    1
    33    94    93    1
    34    92    93   ar
    35    92    90   ar
    36   184   183    1
    37   184   185    1
    38    37    38    1
    39   183   180    1
    40    75    76    1
    41    75    72    1
    42    38    40   ar
    43    93    91   ar
    44    90    88   ar
    45    71    72    1
    46    50    51   ar
    47    50    52   ar
    48    51    53   ar
    49    43    44    1
    50    43    42   ar
    51    25    26    1
    52    76    77   ar
    53    76    78   ar
    54   185   179    1
    55    72    73    1
    56    77    79   ar
    57    27    26   ar
    58    27    29   ar
    59   180   179    1
    60   180   181    1
    61    40    42   ar
    62    78    80   ar
    63    52    54   ar
    64    91    89   ar
    65    53    55   ar
    66    26    28   ar
    67     4     3    2
    68    88    89   ar
    69    88    87    1
    70    79    81   ar
    71   179   170   am
    72    83    73   am
    73    83    84    1
    74   182   181    2
    75    29    31   ar
    76    16    15    2
    77    80    81   ar
    78    73    74    2
    79     3     2    1
    80   181   186   am
    81    15    14    1
    82    81    82    1
    83     5     6    1
    84     5     2    1
    85    87    84    1
    86   201   199   am
    87   175   174    1
    88   175   176    2
    89    54    55   ar
    90    28    30   ar
    91   170   171    2
    92   170   169    1
    93   178   176    1
    94   174   173    1
    95    84    85    1
    96     6     7   ar
    97     6     8   ar
    98     2     1    1
    99   186   187    1
   100   176   177    1
   101     7     9   ar
   102    31    30   ar
   103    31    32    1
   104   169   172    1
   105   169   168    1
   106   199   200    2
   107   199   198    1
   108    14    13    1
   109    14    17    1
   110     8    10   ar
   111     9    11   ar
   112    85    86    2
   113    17    18    1
   114   172   173    1
   115    18    20    1
   116    18    19    1
   117   187   190    1
   118   187   188    1
   119    10    11   ar
   120    11    12    1
   121   198   197    1
   122   190   191    1
   123   190   192    1
   124   188   189    2
   125   100    99    1
   126   101    99    1
   127   197   194    1
   128    95    96    1
   129    99    96    1
   130   153   152    2
   131   194   193    1
   132   194   195    1
   133   161   160    2
   134    96    97    1
   135   109   107    1
   136   106   107    1
   137   106   103    1
   138   102    97   am
   139   102   103    1
   140   195   196    2
   141   195   202   am
   142   160   159    1
   143   165   167   ar
   144   165   163   ar
   145   159   158    1
   146   159   162    1
   147    97    98    2
   148   152   158   am
   149   152   151    1
   150   217   214    1
   151   107   108    1
   152   103   104    1
   153   167   166   ar
   154   202   203    1
   155   228   226   ar
   156   228   227   ar
   157   226   224   ar
   158   162   163    1
   159   163   164   ar
   160   151   154    1
   161   151   150    1
   162   214   213    1
   163   214   215    1
   164   203   206    1
   165   203   204    1
   166   156   155   ar
   167   154   155    1
   168   104   105    2
   169   166   164   ar
   170   208   210   ar
   171   208   207   ar
   172   227   225   ar
   173   155   157   ar
   174   224   223   ar
   175   206   207    1
   176   216   215    2
   177   210   212   ar
   178   204   205    2
   179   207   209   ar
   180   218   219    1
   181   225   223   ar
   182   223   222    1
   183   219   222    1
   184   219   220    1
   185   125   124    1
   186   212   211   ar
   187   149   148    2
   188   209   211   ar
   189   251   250    1
   190   110   111    1
   191   114   111    1
   192   114   115    1
   193   137   135    1
   194   220   221    2
   195   124   123    1
   196   124   126    1
   197   136   135    1
   198   148   147    1
   199   111   112    1
   200   115   116    1
   201   135   134    2
   202   250   249    1
   203   119   112   am
   204   119   120    1
   205   147   146    1
   206   123   120    1
   207   258   256    1
   208   117   116   ar
   209   112   113    2
   210   116   118   ar
   211   120   121    1
   212   249   248    1
   213   134   133    1
   214   255   254    2
   215   259   257    1
   216   256   257    1
   217   256   253    1
   218   248   245    1
   219   254   253    1
   220   247   246    2
   221   121   122    2
   222   133   132    1
   223   253   252    1
   224   245   246    1
   225   245   244    1
   226   235   234    1
   227   144   143    1
   228   132   131    1
   229   236   234    1
   230   131   128    1
   231   127   128    1
   232   234   233    1
   233   143   142    1
   234   143   145    1
   235   244   239   am
   236   233   230    1
   237   232   231    2
   238   242   241    1
   239   128   129    1
   240   240   239    2
   241   239   238    1
   242   142   139    1
   243   138   129   am
   244   138   139    1
   245   231   230    1
   246   230   229    1
   247   129   130    2
   248   241   238    1
   249   241   243    1
   250   139   140    1
   251   238   237    1
   252   140   141    2
