@<TRIPOS>MOLECULE
tmp/2vz0A01.pdb
 125 120 0 0 0
SMALL
GASTEIGER

@<TRIPOS>ATOM
      1  N         15.4490  -14.2840    4.8070 N.3    13  ARG13      -0.1245
      2  CA        14.0650  -14.3180    5.2570 C.3    13  ARG13       0.1563
      3  C         13.3080  -13.0820    4.7620 C.2    13  ARG13       0.2260
      4  O         13.4460  -12.7130    3.6050 O.2    13  ARG13      -0.2867
      5  CB        14.0090  -14.5400    6.7980 C.3    13  ARG13       0.0307
      6  CG        14.3440  -16.0060    7.1870 C.3    13  ARG13       0.0489
      7  CD        14.6130  -16.2200    8.6990 C.3    13  ARG13       0.2205
      8  NE        13.4080  -15.9370    9.5040 N.pl3  13  ARG13      -0.0865
      9  CZ        12.3910  -16.7840    9.7020 C.cat  13  ARG13       0.5346
     10  NH1       12.3960  -18.0110    9.1660 N.pl3  13  ARG13       0.1354
     11  NH2       11.3630  -16.4010   10.4610 N.pl3  13  ARG13       0.1354
     12  N         14.9820   -7.6670   14.0680 N.3    94  SER94      -0.1217
     13  CA        14.1210   -7.8820   15.2260 C.3    94  SER94       0.1889
     14  C         14.5400   -9.1340   15.9760 C.2    94  SER94       0.2288
     15  O         14.6050  -10.2100   15.3790 O.2    94  SER94      -0.2866
     16  CB        12.6760   -8.0720   14.7390 C.3    94  SER94       0.2089
     17  OG        11.8570   -8.5820   15.7920 O.3    94  SER94      -0.2183
     18  N         13.4860  -11.9560   18.7790 N.3    96  PHE96      -0.1241
     19  CA        12.1860  -12.5740   19.0560 C.3    96  PHE96       0.1605
     20  C         12.4310  -13.8510   19.8460 C.2    96  PHE96       0.2264
     21  O         12.9560  -14.8230   19.3210 O.2    96  PHE96      -0.2867
     22  CB        11.4330  -12.8720   17.7440 C.3    96  PHE96       0.0534
     23  CG        10.1910  -13.7600   17.9050 C.ar   96  PHE96      -0.0203
     24  CD1       10.2320  -15.1050   17.5480 C.ar   96  PHE96      -0.0042
     25  CD2        8.9900  -13.2320   18.3700 C.ar   96  PHE96      -0.0042
     26  CE1        9.0820  -15.9240   17.6420 C.ar   96  PHE96      -0.0003
     27  CE2        7.8300  -14.0390   18.4830 C.ar   96  PHE96      -0.0003
     28  CZ         7.8830  -15.4000   18.1210 C.ar   96  PHE96      -0.0000
     29  N          3.5960   -6.1920   13.8430 N.3   142  ASP142     -0.1239
     30  CA         3.1230   -7.5180   14.1820 C.3   142  ASP142      0.1674
     31  C          1.5980   -7.4050   14.3550 C.2   142  ASP142      0.2266
     32  O          1.1200   -6.6970   15.2410 O.2   142  ASP142     -0.2867
     33  CB         3.7910   -8.0160   15.4840 C.3   142  ASP142      0.1410
     34  CG         3.4400   -9.4750   15.8200 C.2   142  ASP142      0.3668
     35  OD1        2.3750   -9.9740   15.3990 O.co2 142  ASP142     -0.2456
     36  OD2        4.2520  -10.1360   16.5120 O.co2 142  ASP142     -0.2456
     37  N          1.5520  -13.9290   22.0000 N.3   149  CYS149     -0.1235
     38  CA         1.9850  -15.2520   22.4820 C.3   149  CYS149      0.1677
     39  C          2.3290  -15.1830   23.9650 C.2   149  CYS149      0.2270
     40  O          2.9200  -14.2040   24.4370 O.2   149  CYS149     -0.2867
     41  CB         3.1820  -15.7680   21.6730 C.3   149  CYS149      0.0956
     42  SG         2.7200  -16.4140   20.0400 S.3   149  CYS149     -0.0801
     43  N          9.2140   -8.8090   24.0490 N.3   155  TYR155     -0.1241
     44  CA         9.0050   -8.7410   22.5980 C.3   155  TYR155      0.1605
     45  C          7.7350   -7.9150   22.2640 C.2   155  TYR155      0.2264
     46  O          7.7490   -7.0500   21.4030 O.2   155  TYR155     -0.2867
     47  CB         8.8720  -10.1320   21.9670 C.3   155  TYR155      0.0534
     48  CG         8.3450  -10.0570   20.5490 C.ar  155  TYR155     -0.0201
     49  CD1        9.1710   -9.6130   19.4940 C.ar  155  TYR155     -0.0009
     50  CD2        7.0160  -10.3570   20.2610 C.ar  155  TYR155     -0.0009
     51  CE1        8.6830   -9.5290   18.1820 C.ar  155  TYR155      0.0417
     52  CE2        6.5050  -10.2490   18.9410 C.ar  155  TYR155      0.0417
     53  CZ         7.3340   -9.8340   17.9170 C.ar  155  TYR155      0.1957
     54  OH         6.8310   -9.7250   16.6470 O.3   155  TYR155     -0.2866
     55  N          7.2750   -4.3290   20.1040 N.3   159  LYS159     -0.1245
     56  CA         6.3850   -4.1210   18.9330 C.3   159  LYS159      0.1561
     57  C          5.3060   -3.0500   19.1750 C.2   159  LYS159      0.2260
     58  O          4.9580   -2.2820   18.2640 O.2   159  LYS159     -0.2867
     59  CB         5.7680   -5.4340   18.4550 C.3   159  LYS159      0.0271
     60  CG         6.7740   -6.3590   17.7450 C.3   159  LYS159      0.0035
     61  CD         7.4380   -5.6830   16.5130 C.3   159  LYS159      0.0206
     62  CE         8.1550   -6.7400   15.6650 C.3   159  LYS159      0.1093
     63  NZ         9.1220   -6.1460   14.6830 N.3   159  LYS159     -0.1314
     64  N          1.0520  -11.5440   10.1690 N.3   186  GLY186     -0.1210
     65  CA         0.5220  -12.4110   11.2180 C.3   186  GLY186      0.1956
     66  C          1.5190  -13.5550   11.3700 C.2   186  GLY186      0.2612
     67  O          2.5070  -13.4540   12.1310 O.2   186  GLY186     -0.2717
     68  N          1.2540  -14.6490   10.6700 N.am  187  VAL187     -0.1965
     69  CA         2.2430  -15.7240   10.5120 C.3   187  VAL187      0.1727
     70  C          2.8030  -15.7220    9.0910 C.2   187  VAL187      0.2617
     71  O          2.0840  -15.8480    8.1160 O.2   187  VAL187     -0.2715
     72  CB         1.7330  -17.1370   10.9480 C.3   187  VAL187      0.0290
     73  CG1        1.2870  -17.1190   12.4310 C.3   187  VAL187      0.0023
     74  CG2        0.6370  -17.6720   10.0470 C.3   187  VAL187      0.0023
     75  N          4.0980  -15.5080    9.0010 N.am  188  SER188     -0.1936
     76  CA         4.8090  -15.5980    7.7430 C.3   188  SER188      0.2055
     77  C          5.8670  -16.7010    7.9430 C.2   188  SER188      0.2643
     78  O          5.5410  -17.7780    8.4840 O.2   188  SER188     -0.2714
     79  CB         5.3700  -14.2210    7.3350 C.3   188  SER188      0.2130
     80  OG         6.1280  -14.2760    6.1260 O.3   188  SER188     -0.2179
     81  N          7.1140  -16.4520    7.5440 N.am  189  LEU189     -0.1963
     82  CA         8.1850  -17.4480    7.6580 C.3   189  LEU189      0.1728
     83  C          8.3020  -18.0060    9.0700 C.2   189  LEU189      0.2616
     84  O          8.5790  -17.2880   10.0250 O.2   189  LEU189     -0.2715
     85  CB         9.5250  -16.8940    7.1680 C.3   189  LEU189      0.0311
     86  CG         9.4990  -16.3460    5.7270 C.3   189  LEU189      0.0022
     87  CD1       10.8860  -15.7800    5.3510 C.3   189  LEU189      0.0001
     88  CD2        9.0030  -17.3690    4.7010 C.3   189  LEU189      0.0001
     89  N          8.0600  -19.3020    9.1860 N.am  190  LEU190     -0.1964
     90  CA         8.0680  -19.9580   10.4800 C.3   190  LEU190      0.1713
     91  C          9.5040  -20.0910   11.0330 C.2   190  LEU190      0.2458
     92  O         10.4770  -20.0180   10.2680 O.2   190  LEU190     -0.2730
     93  CB         7.3550  -21.3320   10.3960 C.3   190  LEU190      0.0310
     94  CG         5.8120  -21.4110   10.2660 C.3   190  LEU190      0.0022
     95  CD1        5.0640  -20.1070   10.4130 C.3   190  LEU190      0.0001
     96  CD2        5.3670  -22.1190    8.9990 C.3   190  LEU190      0.0001
     97  N          9.6420  -20.2520   12.3700 N.am  191  PRO191     -0.2727
     98  CA        10.9630  -20.4070   12.9620 C.3   191  PRO191      0.1402
     99  C         11.6390  -21.6540   12.3790 C.2   191  PRO191      0.2269
    100  O         10.9590  -22.6630   12.1330 O.2   191  PRO191     -0.2865
    101  CB        10.6650  -20.6070   14.4570 C.3   191  PRO191      0.0296
    102  CG         9.3330  -20.0920   14.6820 C.3   191  PRO191      0.0237
    103  CD         8.5760  -20.2850   13.3910 C.3   191  PRO191      0.0939
    104  N         11.2200  -24.8930   14.4130 N.3   194  MET194     -0.1245
    105  CA         9.8720  -25.4090   14.6390 C.3   194  MET194      0.1570
    106  C          9.5760  -26.7030   13.8530 C.2   194  MET194      0.2261
    107  O          9.8210  -26.7690   12.6510 O.2   194  MET194     -0.2867
    108  CB         8.8420  -24.3240   14.3160 C.3   194  MET194      0.0387
    109  CG         7.4580  -24.6510   14.8460 C.3   194  MET194      0.0595
    110  SD         6.1970  -23.4520   14.4090 S.3   194  MET194     -0.1393
    111  CE         6.3360  -22.3100   15.7910 C.3   194  MET194      0.0692
    112  N         -0.4340  -24.0190   13.4470 N.3   202  TRP202     -0.1241
    113  CA        -0.5690  -22.5970   13.2100 C.3   202  TRP202      0.1605
    114  C         -1.1570  -22.2710   11.8330 C.2   202  TRP202      0.2264
    115  O         -2.0290  -21.3930   11.7030 O.2   202  TRP202     -0.2867
    116  CB         0.7740  -21.9130   13.4320 C.3   202  TRP202      0.0550
    117  CG         1.0080  -21.6730   14.8900 C.ar  202  TRP202      0.0003
    118  CD1        1.6380  -22.5010   15.7700 C.ar  202  TRP202      0.0946
    119  CD2        0.5590  -20.5390   15.6420 C.ar  202  TRP202      0.0152
    120  NE1        1.6380  -21.9400   17.0310 N.ar  202  TRP202     -0.2442
    121  CE2        0.9830  -20.7330   16.9770 C.ar  202  TRP202      0.0810
    122  CE3       -0.1320  -19.3540   15.3060 C.ar  202  TRP202      0.0012
    123  CZ2        0.7280  -19.7880   17.9920 C.ar  202  TRP202      0.0191
    124  CZ3       -0.3840  -18.4230   16.3090 C.ar  202  TRP202      0.0001
    125  CH2        0.0470  -18.6490   17.6420 C.ar  202  TRP202      0.0015
@<TRIPOS>BOND
     1     4     3    2
     2    88    86    1
     3     3     2    1
     4     1     2    1
     5     2     5    1
     6    87    86    1
     7    86    85    1
     8    80    79    1
     9     5     6    1
    10    85    82    1
    11     6     7    1
    12    79    76    1
    13    81    82    1
    14    81    77   am
    15    82    83    1
    16    76    77    1
    17    76    75    1
    18    77    78    2
    19    71    70    2
    20     7     8    1
    21    96    94    1
    22    75    70   am
    23    83    89   am
    24    83    84    2
    25    70    69    1
    26    10     9    1
    27    89    90    1
    28     8     9    2
    29     9    11    1
    30    74    72    1
    31    64    65    1
    32    94    93    1
    33    94    95    1
    34    92    91    2
    35    93    90    1
    36    90    91    1
    37    69    68    1
    38    69    72    1
    39    68    66   am
    40    72    73    1
    41    91    97   am
    42    65    66    1
    43    66    67    2
    44   115   114    2
    45   114   113    1
    46   100    99    2
    47    97    98    1
    48    97   103    1
    49    99    98    1
    50   107   106    2
    51    98   101    1
    52   113   116    1
    53   113   112    1
    54   103   102    1
    55   116   117    1
    56    29    30    1
    57   106   105    1
    58    12    13    1
    59    30    31    1
    60    30    33    1
    61   108   105    1
    62   108   109    1
    63    31    32    2
    64   110   109    1
    65   110   111    1
    66   104   105    1
    67   101   102    1
    68    63    62    1
    69    16    13    1
    70    16    17    1
    71   117   119   ar
    72   117   118   ar
    73    13    14    1
    74   122   119   ar
    75   122   124   ar
    76    15    14    2
    77    35    34   ar
    78    33    34    1
    79   119   121   ar
    80    62    61    1
    81   118   120   ar
    82    34    36   ar
    83   124   125   ar
    84    61    60    1
    85    54    53    1
    86   121   120   ar
    87   121   123   ar
    88    24    26   ar
    89    24    23   ar
    90   125   123   ar
    91    26    28   ar
    92    22    23    1
    93    22    19    1
    94    60    59    1
    95    23    25   ar
    96    53    51   ar
    97    53    52   ar
    98    28    27   ar
    99    51    49   ar
   100    58    57    2
   101    25    27   ar
   102    59    56    1
   103    18    19    1
   104    56    57    1
   105    56    55    1
   106    52    50   ar
   107    19    20    1
   108    21    20    2
   109    49    48   ar
   110    42    41    1
   111    50    48   ar
   112    48    47    1
   113    46    45    2
   114    41    38    1
   115    47    44    1
   116    37    38    1
   117    45    44    1
   118    38    39    1
   119    44    43    1
   120    39    40    2
