@<TRIPOS>MOLECULE
tmp/2vz2B01.pdb
 147 143 0 0 0
SMALL
GASTEIGER

@<TRIPOS>ATOM
      1  N         24.5250  118.9880   16.1660 N.3    55  GLY55      -0.1210
      2  CA        24.6450  120.4290   15.9890 C.3    55  GLY55       0.1956
      3  C         23.2790  121.0550   15.7640 C.2    55  GLY55       0.2612
      4  O         22.3090  120.7090   16.4550 O.2    55  GLY55      -0.2717
      5  N         23.2050  121.9730   14.8000 N.am   56  GLY56      -0.1942
      6  CA        21.9360  122.5940   14.4010 C.3    56  GLY56       0.2014
      7  C         20.8590  121.5780   14.0520 C.2    56  GLY56       0.2640
      8  O         21.1010  120.6380   13.2850 O.2    56  GLY56      -0.2714
      9  N         19.6680  121.7800   14.6100 N.am   57  SER57      -0.1935
     10  CA        18.5750  120.8130   14.5080 C.3    57  SER57       0.2055
     11  C         17.1890  121.4320   14.3140 C.2    57  SER57       0.2643
     12  O         16.4090  120.9770   13.4690 O.2    57  SER57      -0.2714
     13  CB        18.5600  119.9190   15.7560 C.3    57  SER57       0.2130
     14  OG        17.6610  118.8320   15.5820 O.3    57  SER57      -0.2179
     15  N         16.8780  122.4490   15.1130 N.am   58  TYR58      -0.1973
     16  CA        15.5180  123.0030   15.1830 C.3    58  TYR58       0.1639
     17  C         15.2010  123.9990   14.0850 C.2    58  TYR58       0.2290
     18  O         16.0480  124.7930   13.6840 O.2    58  TYR58      -0.2864
     19  CB        15.2460  123.6190   16.5630 C.3    58  TYR58       0.0560
     20  CG        15.4440  122.6090   17.6530 C.ar   58  TYR58      -0.0198
     21  CD1       16.6320  122.5730   18.3780 C.ar   58  TYR58      -0.0009
     22  CD2       14.4740  121.6330   17.9100 C.ar   58  TYR58      -0.0009
     23  CE1       16.8400  121.6180   19.3580 C.ar   58  TYR58       0.0417
     24  CE2       14.6710  120.6760   18.8900 C.ar   58  TYR58       0.0417
     25  CZ        15.8590  120.6740   19.6070 C.ar   58  TYR58       0.1957
     26  OH        16.0740  119.7340   20.5690 O.3    58  TYR58      -0.2866
     27  N         18.2590  133.1180   29.7970 N.3   166  PHE166     -0.1241
     28  CA        17.7890  133.4650   28.4510 C.3   166  PHE166      0.1605
     29  C         18.9380  133.8680   27.5160 C.2   166  PHE166      0.2264
     30  O         19.0270  133.3600   26.3970 O.2   166  PHE166     -0.2867
     31  CB        16.6990  134.5540   28.5360 C.3   166  PHE166      0.0534
     32  CG        16.3490  135.2030   27.2140 C.ar  166  PHE166     -0.0203
     33  CD1       15.6380  134.5110   26.2420 C.ar  166  PHE166     -0.0042
     34  CD2       16.6850  136.5340   26.9700 C.ar  166  PHE166     -0.0042
     35  CE1       15.2980  135.1220   25.0280 C.ar  166  PHE166     -0.0003
     36  CE2       16.3440  137.1540   25.7610 C.ar  166  PHE166     -0.0003
     37  CZ        15.6520  136.4390   24.7870 C.ar  166  PHE166     -0.0000
     38  N         21.3080  130.7900   26.8920 N.3   169  LEU169     -0.1231
     39  CA        20.6650  129.8550   25.9770 C.3   169  LEU169      0.1693
     40  C         20.5860  130.3510   24.5310 C.2   169  LEU169      0.2592
     41  O         20.7370  129.5600   23.5970 O.2   169  LEU169     -0.2718
     42  CB        19.2650  129.5010   26.4940 C.3   169  LEU169      0.0284
     43  CG        18.3810  128.5460   25.6820 C.3   169  LEU169      0.0019
     44  CD1       19.0340  127.1640   25.4820 C.3   169  LEU169      0.0001
     45  CD2       16.9940  128.4250   26.3370 C.3   169  LEU169      0.0001
     46  N         20.3320  131.6430   24.3420 N.am  170  CYS170     -0.1970
     47  CA        20.1860  132.1910   22.9880 C.3   170  CYS170      0.1712
     48  C         21.5050  132.2410   22.2240 C.2   170  CYS170      0.2296
     49  O         21.5490  131.8890   21.0430 O.2   170  CYS170     -0.2864
     50  CB        19.5450  133.5860   23.0060 C.3   170  CYS170      0.0983
     51  SG        17.7670  133.5780   23.2930 S.3   170  CYS170     -0.0798
     52  N         20.1520  140.5860   17.7590 N.3   186  TYR186     -0.1241
     53  CA        20.0280  139.1480   17.5650 C.3   186  TYR186      0.1605
     54  C         18.6120  138.6140   17.8300 C.2   186  TYR186      0.2264
     55  O         18.0950  137.8020   17.0630 O.2   186  TYR186     -0.2867
     56  CB        21.0500  138.4100   18.4250 C.3   186  TYR186      0.0534
     57  CG        21.2020  136.9560   18.0580 C.ar  186  TYR186     -0.0201
     58  CD1       22.1320  136.5550   17.0940 C.ar  186  TYR186     -0.0009
     59  CD2       20.4180  135.9740   18.6770 C.ar  186  TYR186     -0.0009
     60  CE1       22.2810  135.2110   16.7580 C.ar  186  TYR186      0.0417
     61  CE2       20.5560  134.6310   18.3420 C.ar  186  TYR186      0.0417
     62  CZ        21.4860  134.2600   17.3840 C.ar  186  TYR186      0.1957
     63  OH        21.6240  132.9350   17.0580 O.3   186  TYR186     -0.2866
     64  N         11.6860  133.6990   19.5070 N.3   196  ILE196     -0.1231
     65  CA        12.9740  133.0170   19.6840 C.3   196  ILE196      0.1692
     66  C         12.9500  131.9170   20.7690 C.2   196  ILE196      0.2591
     67  O         13.6410  130.9050   20.6330 O.2   196  ILE196     -0.2718
     68  CB        14.1760  134.0120   19.8590 C.3   196  ILE196      0.0266
     69  CG1       15.4940  133.3300   19.4650 C.3   196  ILE196      0.0019
     70  CG2       14.2390  134.5890   21.2760 C.3   196  ILE196      0.0020
     71  CD1       16.7340  134.2440   19.4740 C.3   196  ILE196      0.0001
     72  N         12.1390  132.1070   21.8130 N.am  197  ILE197     -0.1980
     73  CA        12.0690  131.1700   22.9510 C.3   197  ILE197      0.1595
     74  C         11.0360  130.0500   22.7860 C.2   197  ILE197      0.2287
     75  O         11.1060  129.0330   23.4830 O.2   197  ILE197     -0.2864
     76  CB        11.7300  131.8860   24.2990 C.3   197  ILE197      0.0276
     77  CG1       10.3340  132.5270   24.2370 C.3   197  ILE197      0.0022
     78  CG2       12.7850  132.9070   24.6490 C.3   197  ILE197      0.0022
     79  CD1        9.6300  132.6350   25.5540 C.3   197  ILE197      0.0001
     80  N         11.9180  126.4960   18.0070 N.3   204  GLN204     -0.1245
     81  CA        12.1540  125.1090   18.4170 C.3   204  GLN204      0.1566
     82  C         10.9770  124.1900   18.1140 C.2   204  GLN204      0.2260
     83  O         10.8730  123.1060   18.6890 O.2   204  GLN204     -0.2867
     84  CB        12.5130  125.0290   19.9130 C.3   204  GLN204      0.0367
     85  CG        13.9380  125.4860   20.2590 C.3   204  GLN204      0.0905
     86  CD        14.1420  126.9820   20.0310 C.2   204  GLN204      0.2608
     87  OE1       14.9980  127.3860   19.2410 O.2   204  GLN204     -0.2717
     88  NE2       13.3370  127.8070   20.7040 N.am  204  GLN204     -0.0878
     89  N         18.6460  123.9640   30.1370 N.3   324  TYR324     -0.1241
     90  CA        17.5220  123.8400   29.2170 C.3   324  TYR324      0.1605
     91  C         17.5210  122.5060   28.4740 C.2   324  TYR324      0.2264
     92  O         18.5460  122.0760   27.9410 O.2   324  TYR324     -0.2867
     93  CB        17.5230  125.0130   28.2260 C.3   324  TYR324      0.0534
     94  CG        16.2850  125.1000   27.3630 C.ar  324  TYR324     -0.0201
     95  CD1       15.0870  125.5920   27.8790 C.ar  324  TYR324     -0.0009
     96  CD2       16.3140  124.7010   26.0270 C.ar  324  TYR324     -0.0009
     97  CE1       13.9510  125.6770   27.0860 C.ar  324  TYR324      0.0417
     98  CE2       15.1820  124.7930   25.2280 C.ar  324  TYR324      0.0417
     99  CZ        14.0070  125.2780   25.7670 C.ar  324  TYR324      0.1957
    100  OH        12.8790  125.3620   24.9800 O.3   324  TYR324     -0.2866
    101  N         14.9750  119.6610   25.9050 N.3   326  LEU326     -0.1245
    102  CA        13.8110  119.3590   25.0920 C.3   326  LEU326      0.1561
    103  C         13.7020  117.8430   24.9440 C.2   326  LEU326      0.2260
    104  O         14.7100  117.1290   24.9980 O.2   326  LEU326     -0.2867
    105  CB        13.9120  120.0360   23.7230 C.3   326  LEU326      0.0270
    106  CG        13.7000  121.5570   23.6500 C.3   326  LEU326      0.0019
    107  CD1       14.1230  122.0880   22.2900 C.3   326  LEU326      0.0001
    108  CD2       12.2500  121.9780   23.9750 C.3   326  LEU326      0.0001
    109  N         21.4730  121.2850   26.6520 N.3   341  PHE341     -0.1241
    110  CA        22.6200  122.1300   26.3080 C.3   341  PHE341      0.1605
    111  C         23.4410  122.4660   27.5470 C.2   341  PHE341      0.2264
    112  O         22.8970  122.9360   28.5440 O.2   341  PHE341     -0.2867
    113  CB        22.1650  123.4530   25.6690 C.3   341  PHE341      0.0534
    114  CG        21.6250  123.3200   24.2690 C.ar  341  PHE341     -0.0203
    115  CD1       20.3650  123.8120   23.9600 C.ar  341  PHE341     -0.0042
    116  CD2       22.3850  122.7320   23.2550 C.ar  341  PHE341     -0.0042
    117  CE1       19.8530  123.7050   22.6670 C.ar  341  PHE341     -0.0003
    118  CE2       21.8870  122.6220   21.9690 C.ar  341  PHE341     -0.0003
    119  CZ        20.6140  123.1110   21.6720 C.ar  341  PHE341     -0.0000
    120  N         26.4940  128.4030   19.0940 N.3   396  TYR396     -0.1241
    121  CA        25.9080  128.1880   17.7740 C.3   396  TYR396      0.1605
    122  C         26.5070  129.1230   16.7340 C.2   396  TYR396      0.2264
    123  O         26.6130  128.7700   15.5560 O.2   396  TYR396     -0.2867
    124  CB        24.3850  128.4080   17.8110 C.3   396  TYR396      0.0534
    125  CG        23.7090  128.0540   19.1200 C.ar  396  TYR396     -0.0201
    126  CD1       23.8930  126.8050   19.7140 C.ar  396  TYR396     -0.0009
    127  CD2       22.8640  128.9700   19.7570 C.ar  396  TYR396     -0.0009
    128  CE1       23.2690  126.4820   20.9060 C.ar  396  TYR396      0.0417
    129  CE2       22.2330  128.6570   20.9490 C.ar  396  TYR396      0.0417
    130  CZ        22.4360  127.4100   21.5180 C.ar  396  TYR396      0.1957
    131  OH        21.8200  127.0930   22.7130 O.3   396  TYR396     -0.2866
    132  N         22.4310  133.2800   12.5760 N.3   432  GLY432     -0.1210
    133  CA        22.8400  132.3820   13.6550 C.3   432  GLY432      0.1956
    134  C         22.2180  131.0110   13.4810 C.2   432  GLY432      0.2611
    135  O         22.6450  130.0470   14.1150 O.2   432  GLY432     -0.2717
    136  N         21.2260  130.9300   12.5940 N.am  433  TYR433     -0.1976
    137  CA        20.4380  129.7180   12.3820 C.3   433  TYR433      0.1639
    138  C         20.6810  129.1300   10.9920 C.2   433  TYR433      0.2290
    139  O         21.3210  129.7640   10.1410 O.2   433  TYR433     -0.2864
    140  CB        18.9420  130.0160   12.5930 C.3   433  TYR433      0.0560
    141  CG        18.5670  130.3340   14.0350 C.ar  433  TYR433     -0.0198
    142  CD1       19.0110  131.5070   14.6620 C.ar  433  TYR433     -0.0009
    143  CD2       17.7630  129.4650   14.7700 C.ar  433  TYR433     -0.0009
    144  CE1       18.6780  131.7920   15.9790 C.ar  433  TYR433      0.0417
    145  CE2       17.4160  129.7480   16.0910 C.ar  433  TYR433      0.0417
    146  CZ        17.8780  130.9070   16.6850 C.ar  433  TYR433      0.1957
    147  OH        17.5290  131.1770   17.9900 O.3   433  TYR433     -0.2866
@<TRIPOS>BOND
     1   139   138    2
     2   138   137    1
     3   137   140    1
     4   137   136    1
     5   132   133    1
     6   140   141    1
     7   136   134   am
     8     8     7    2
     9    12    11    2
    10   134   133    1
    11   134   135    2
    12    18    17    2
    13   141   142   ar
    14   141   143   ar
    15     7     6    1
    16     7     9   am
    17    17    16    1
    18    11    10    1
    19    11    15   am
    20     6     5    1
    21    10     9    1
    22    10    13    1
    23   142   144   ar
    24   143   145   ar
    25     5     3   am
    26    15    16    1
    27    16    19    1
    28   123   122    2
    29    14    13    1
    30     3     2    1
    31     3     4    2
    32   144   146   ar
    33     2     1    1
    34   145   146   ar
    35    19    20    1
    36   146   147    1
    37   122   121    1
    38    60    58   ar
    39    60    62   ar
    40    63    62    1
    41    55    54    2
    42    58    57   ar
    43    62    61   ar
    44    53    52    1
    45    53    54    1
    46    53    56    1
    47    20    22   ar
    48    20    21   ar
    49   121   124    1
    50   121   120    1
    51   124   125    1
    52    22    24   ar
    53    80    81    1
    54    57    56    1
    55    57    59   ar
    56    82    81    1
    57    82    83    2
    58    61    59   ar
    59    21    23   ar
    60    81    84    1
    61    24    25   ar
    62   125   126   ar
    63   125   127   ar
    64    87    86    2
    65    23    25   ar
    66    69    71    1
    67    69    68    1
    68    64    65    1
    69    25    26    1
    70    65    68    1
    71    65    66    1
    72   126   128   ar
    73   127   129   ar
    74    68    70    1
    75    84    85    1
    76    86    85    1
    77    86    88   am
    78    67    66    2
    79    66    72   am
    80   128   130   ar
    81   129   130   ar
    82    49    48    2
    83   130   131    1
    84   119   118   ar
    85   119   117   ar
    86    72    73    1
    87   118   116   ar
    88    48    47    1
    89   107   106    1
    90   117   115   ar
    91    74    73    1
    92    74    75    2
    93    73    76    1
    94    47    50    1
    95    47    46    1
    96    50    51    1
    97   116   114   ar
    98    41    40    2
    99   106   105    1
   100   106   108    1
   101   105   102    1
   102   115   114   ar
   103    77    76    1
   104    77    79    1
   105   114   113    1
   106    76    78    1
   107    46    40   am
   108    40    39    1
   109    37    35   ar
   110    37    36   ar
   111   103   104    2
   112   103   102    1
   113   100    99    1
   114    35    33   ar
   115   102   101    1
   116    98    99   ar
   117    98    96   ar
   118    44    43    1
   119   113   110    1
   120    43    45    1
   121    43    42    1
   122    36    34   ar
   123    99    97   ar
   124    39    42    1
   125    39    38    1
   126    96    94   ar
   127    33    32   ar
   128   110   109    1
   129   110   111    1
   130    30    29    2
   131    34    32   ar
   132    97    95   ar
   133    32    31    1
   134    94    95   ar
   135    94    93    1
   136    29    28    1
   137   111   112    2
   138    92    91    2
   139    93    90    1
   140    28    31    1
   141    28    27    1
   142    91    90    1
   143    90    89    1
