@<TRIPOS>MOLECULE
tmp/2vz6A00.pdb
 156 145 0 0 0
SMALL
GASTEIGER

@<TRIPOS>ATOM
      1  N         57.4920   61.6270   13.5370 N.3    13  LEU13      -0.1231
      2  CA        56.2450   60.9480   13.7500 C.3    13  LEU13       0.1693
      3  C         55.1180   61.8180   13.1470 C.2    13  LEU13       0.2593
      4  O         54.1880   61.3070   12.5170 O.2    13  LEU13      -0.2718
      5  CB        56.0560   60.7380   15.2590 C.3    13  LEU13       0.0284
      6  CG        57.0840   59.8860   16.0120 C.3    13  LEU13       0.0019
      7  CD1       56.6640   59.8100   17.4760 C.3    13  LEU13       0.0001
      8  CD2       57.2560   58.4770   15.3890 C.3    13  LEU13       0.0001
      9  N         55.2300   63.1340   13.3200 N.am   14  GLY14      -0.1942
     10  CA        54.2830   64.0690   12.7330 C.3    14  GLY14       0.2014
     11  C         54.7510   65.5130   12.7940 C.2    14  GLY14       0.2638
     12  O         55.9150   65.7730   13.1430 O.2    14  GLY14      -0.2714
     13  N         53.8310   66.4330   12.4560 N.am   15  LYS15      -0.1977
     14  CA        54.0650   67.8940   12.4480 C.3    15  LYS15       0.1596
     15  C         53.0430   68.7230   13.2770 C.2    15  LYS15       0.2287
     16  O         51.8300   68.6880   13.0640 O.2    15  LYS15      -0.2864
     17  CB        54.1380   68.4010   11.0010 C.3    15  LYS15       0.0298
     18  CG        55.4520   67.9820   10.2980 C.3    15  LYS15       0.0038
     19  CD        55.8610   68.9370    9.1700 C.3    15  LYS15       0.0206
     20  CE        57.3440   69.3420    9.2590 C.3    15  LYS15       0.1093
     21  NZ        58.3010   68.2440    8.9210 N.3    15  LYS15      -0.1314
     22  N         54.8010   72.6800   14.7790 N.3    17  SER17      -0.1217
     23  CA        55.8460   71.9670   15.5240 C.3    17  SER17       0.1889
     24  C         56.3640   70.7700   14.7100 C.2    17  SER17       0.2288
     25  O         56.0100   70.6320   13.5390 O.2    17  SER17      -0.2866
     26  CB        55.2330   71.4790   16.8410 C.3    17  SER17       0.2089
     27  OG        54.0100   70.7790   16.5960 O.3    17  SER17      -0.2183
     28  N         57.0760   66.3360   15.8870 N.3    19  VAL19      -0.1245
     29  CA        57.0610   65.3390   16.9340 C.3    19  VAL19       0.1561
     30  C         58.0460   64.2860   16.4430 C.2    19  VAL19       0.2260
     31  O         57.9240   63.8060   15.3270 O.2    19  VAL19      -0.2867
     32  CB        55.6420   64.7280   17.1850 C.3    19  VAL19       0.0252
     33  CG1       55.7120   63.6150   18.2660 C.3    19  VAL19       0.0019
     34  CG2       54.6340   65.8060   17.5960 C.3    19  VAL19       0.0019
     35  N         58.0010   60.3750   22.8870 N.3    32  ALA32      -0.1245
     36  CA        57.7580   61.3130   21.8000 C.3    32  ALA32       0.1562
     37  C         58.1320   62.7310   22.2690 C.2    32  ALA32       0.2260
     38  O         57.6420   63.1860   23.2930 O.2    32  ALA32      -0.2867
     39  CB        56.3280   61.2820   21.4290 C.3    32  ALA32       0.0290
     40  N         57.5710   66.4910   21.3300 N.3    34  LYS34      -0.1245
     41  CA        57.0130   67.6390   20.5870 C.3    34  LYS34       0.1561
     42  C         58.0100   68.8090   20.6880 C.2    34  LYS34       0.2260
     43  O         58.2730   69.3340   21.7790 O.2    34  LYS34      -0.2867
     44  CB        55.6480   68.0560   21.1370 C.3    34  LYS34       0.0271
     45  CG        54.9010   69.1260   20.3130 C.3    34  LYS34       0.0035
     46  CD        53.5700   69.5600   20.9560 C.3    34  LYS34       0.0206
     47  CE        52.9660   70.7800   20.2460 C.3    34  LYS34       0.1093
     48  NZ        51.6280   71.1430   20.7370 N.3    34  LYS34      -0.1314
     49  N         47.4200   60.9520   26.2590 N.3    65  VAL65      -0.1245
     50  CA        48.9020   60.7710   26.3950 C.3    65  VAL65       0.1561
     51  C         49.4630   61.6380   27.5570 C.2    65  VAL65       0.2260
     52  O         49.0230   62.7580   27.7770 O.2    65  VAL65      -0.2867
     53  CB        49.6760   61.1630   25.1270 C.3    65  VAL65       0.0252
     54  CG1       49.2800   60.2720   23.9560 C.3    65  VAL65       0.0019
     55  CG2       49.4620   62.6620   24.8300 C.3    65  VAL65       0.0019
     56  N         56.5300   63.3650   25.8590 N.3    81  PHE81      -0.1227
     57  CA        55.3360   62.6210   26.2550 C.3    81  PHE81       0.1736
     58  C         55.5830   61.1210   26.2260 C.2    81  PHE81       0.2595
     59  O         56.5710   60.6430   25.7070 O.2    81  PHE81      -0.2718
     60  CB        54.1710   62.8940   25.2890 C.3    81  PHE81       0.0547
     61  CG        53.7290   64.3330   25.2100 C.ar   81  PHE81      -0.0202
     62  CD1       52.6630   64.7870   25.9670 C.ar   81  PHE81      -0.0042
     63  CD2       54.3390   65.2110   24.3370 C.ar   81  PHE81      -0.0042
     64  CE1       52.2580   66.0990   25.9090 C.ar   81  PHE81      -0.0003
     65  CE2       53.9180   66.5300   24.2540 C.ar   81  PHE81      -0.0003
     66  CZ        52.8770   66.9760   25.0420 C.ar   81  PHE81      -0.0000
     67  N         54.6290   60.3640   26.7300 N.am   82  ASP82      -0.1960
     68  CA        54.5620   58.9480   26.3980 C.3    82  ASP82       0.1840
     69  C         54.6110   58.7590   24.9020 C.2    82  ASP82       0.2622
     70  O         53.9780   59.5160   24.1680 O.2    82  ASP82      -0.2715
     71  CB        53.2340   58.3440   26.8510 C.3    82  ASP82       0.1450
     72  CG        53.0970   58.2770   28.3520 C.2    82  ASP82       0.3671
     73  OD1       54.1510   58.2330   29.0420 O.co2  82  ASP82      -0.2456
     74  OD2       51.9130   58.2780   28.8060 O.co2  82  ASP82      -0.2456
     75  N         55.3640   57.7550   24.4670 N.am   83  LEU83      -0.1963
     76  CA        55.3170   57.2500   23.1030 C.3    83  LEU83       0.1728
     77  C         54.2070   56.2040   22.9700 C.2    83  LEU83       0.2616
     78  O         54.2280   55.1440   23.6350 O.2    83  LEU83      -0.2715
     79  CB        56.6660   56.6190   22.7210 C.3    83  LEU83       0.0311
     80  CG        56.8430   56.1500   21.2740 C.3    83  LEU83       0.0022
     81  CD1       56.6480   57.2930   20.2110 C.3    83  LEU83       0.0001
     82  CD2       58.2210   55.4380   21.1360 C.3    83  LEU83       0.0001
     83  N         53.2240   56.5260   22.1330 N.am   84  VAL84      -0.1963
     84  CA        52.1960   55.5700   21.6890 C.3    84  VAL84       0.1727
     85  C         52.5380   55.1550   20.2510 C.2    84  VAL84       0.2616
     86  O         52.9570   55.9690   19.4510 O.2    84  VAL84      -0.2715
     87  CB        50.7650   56.1370   21.8200 C.3    84  VAL84       0.0290
     88  CG1       50.4250   56.3290   23.3140 C.3    84  VAL84       0.0023
     89  CG2       50.6130   57.4030   21.0720 C.3    84  VAL84       0.0023
     90  N         52.4240   53.8690   19.9530 N.am   85  THR85      -0.1951
     91  CA        53.1190   53.2930   18.8010 C.3    85  THR85       0.1897
     92  C         52.1860   52.6980   17.7510 C.2    85  THR85       0.2313
     93  O         52.6600   52.0230   16.8510 O.2    85  THR85      -0.2863
     94  CB        54.1570   52.1990   19.2320 C.3    85  THR85       0.1794
     95  OG1       53.4990   51.0560   19.8000 O.3    85  THR85      -0.2208
     96  CG2       55.1150   52.7500   20.2330 C.3    85  THR85       0.0378
     97  N         49.8970   54.5470   15.8350 N.3    87  GLY87      -0.1210
     98  CA        49.5490   55.5140   14.7990 C.3    87  GLY87       0.1956
     99  C         48.0960   55.9470   14.8940 C.2    87  GLY87       0.2611
    100  O         47.4250   55.6900   15.8780 O.2    87  GLY87      -0.2717
    101  N         47.6000   56.5980   13.8560 N.am   88  GLU88      -0.1979
    102  CA        46.2660   57.1210   13.8850 C.3    88  GLU88       0.1602
    103  C         45.2550   56.0090   13.9370 C.2    88  GLU88       0.2287
    104  O         45.3910   55.0060   13.2810 O.2    88  GLU88      -0.2864
    105  CB        45.9920   57.9880   12.6580 C.3    88  GLU88       0.0415
    106  CG        46.6170   59.3820   12.7160 C.3    88  GLU88       0.1163
    107  CD        46.3270   60.2360   11.4850 C.2    88  GLU88       0.3649
    108  OE1       45.3290   59.9690   10.7820 O.co2  88  GLU88      -0.2457
    109  OE2       47.1110   61.1820   11.2230 O.co2  88  GLU88      -0.2457
    110  N         40.2670   66.5140   16.1640 N.3   129  LYS129     -0.1245
    111  CA        40.2150   66.0750   14.7810 C.3   129  LYS129      0.1561
    112  C         40.9470   64.7390   14.6810 C.2   129  LYS129      0.2260
    113  O         41.6520   64.3750   15.6210 O.2   129  LYS129     -0.2867
    114  CB        40.8420   67.1360   13.8750 C.3   129  LYS129      0.0271
    115  CG        42.2620   67.4370   14.1660 C.3   129  LYS129      0.0035
    116  CD        42.7220   68.6620   13.4290 C.3   129  LYS129      0.0206
    117  CE        44.1550   68.9650   13.7880 C.3   129  LYS129      0.1093
    118  NZ        44.2840   69.0630   15.2730 N.3   129  LYS129     -0.1314
    119  N         43.6040   63.6850   13.4290 N.3   131  GLU131     -0.1231
    120  CA        45.0470   63.7720   13.7040 C.3   131  GLU131      0.1699
    121  C         45.4240   63.5210   15.1790 C.2   131  GLU131      0.2592
    122  O         46.5140   63.0310   15.4670 O.2   131  GLU131     -0.2718
    123  CB        45.5470   65.1340   13.2430 C.3   131  GLU131      0.0402
    124  CG        45.7740   65.2670   11.7030 C.3   131  GLU131      0.1161
    125  CD        44.5140   65.4200   10.8090 C.2   131  GLU131      0.3649
    126  OE1       43.3910   65.7960   11.2780 O.co2 131  GLU131     -0.2457
    127  OE2       44.6920   65.2080    9.5780 O.co2 131  GLU131     -0.2457
    128  N         44.5270   63.8620   16.1010 N.am  132  ASN132     -0.1974
    129  CA        44.7620   63.7590   17.5500 C.3   132  ASN132      0.1688
    130  C         44.3760   62.3970   18.1200 C.2   132  ASN132      0.2292
    131  O         44.5600   62.1610   19.3010 O.2   132  ASN132     -0.2864
    132  CB        43.9530   64.8320   18.3320 C.3   132  ASN132      0.1181
    133  CG        44.1470   66.2460   17.7970 C.2   132  ASN132      0.2629
    134  OD1       43.2980   66.7650   17.1020 O.2   132  ASN132     -0.2716
    135  ND2       45.2570   66.8570   18.1150 N.am  132  ASN132     -0.0877
    136  N         45.1750   58.8580   18.3400 N.3   134  LEU134     -0.1245
    137  CA        46.2830   57.9010   18.1560 C.3   134  LEU134      0.1561
    138  C         45.9250   56.5810   18.8510 C.2   134  LEU134      0.2260
    139  O         44.9440   56.5310   19.5750 O.2   134  LEU134     -0.2867
    140  CB        47.5950   58.4810   18.6950 C.3   134  LEU134      0.0270
    141  CG        48.1120   59.8190   18.1410 C.3   134  LEU134      0.0019
    142  CD1       49.3880   60.1380   18.8220 C.3   134  LEU134      0.0001
    143  CD2       48.3270   59.8270   16.6170 C.3   134  LEU134      0.0001
    144  N         46.2030   62.9800   21.7500 N.3   147  ALA147     -0.1231
    145  CA        47.5360   63.5530   21.7450 C.3   147  ALA147      0.1694
    146  C         47.4590   64.9620   21.1600 C.2   147  ALA147      0.2592
    147  O         46.6290   65.2220   20.2970 O.2   147  ALA147     -0.2718
    148  CB        48.5000   62.6690   20.9660 C.3   147  ALA147      0.0304
    149  N         48.2890   65.8710   21.6860 N.am  148  ASP148     -0.1974
    150  CA        48.4180   67.2940   21.2340 C.3   148  ASP148      0.1709
    151  C         47.2980   68.2430   21.7130 C.2   148  ASP148      0.2293
    152  O         46.1950   68.2540   21.1940 O.2   148  ASP148     -0.2864
    153  CB        48.6060   67.4410   19.7020 C.3   148  ASP148      0.1436
    154  CG        49.3940   68.7180   19.3160 C.2   148  ASP148      0.3671
    155  OD1       49.3460   69.7200   20.0710 O.co2 148  ASP148     -0.2456
    156  OD2       50.0980   68.7080   18.2730 O.co2 148  ASP148     -0.2456
@<TRIPOS>BOND
     1    21    20    1
     2    19    20    1
     3    19    18    1
     4   127   125   ar
     5    18    17    1
     6   108   107   ar
     7   125   126   ar
     8   125   124    1
     9    17    14    1
    10   109   107   ar
    11   107   106    1
    12   124   123    1
    13    14    13    1
    14    14    15    1
    15    13    11   am
    16     4     3    2
    17   105   106    1
    18   105   102    1
    19    10    11    1
    20    10     9    1
    21    11    12    2
    22    16    15    2
    23     3     9   am
    24     3     2    1
    25   123   120    1
    26   104   103    2
    27   116   117    1
    28   116   115    1
    29   119   120    1
    30     1     2    1
    31    25    24    2
    32   120   121    1
    33     2     5    1
    34   117   118    1
    35   101   102    1
    36   101    99   am
    37   114   115    1
    38   114   111    1
    39   102   103    1
    40   112   111    1
    41   112   113    2
    42    24    23    1
    43    22    23    1
    44   111   110    1
    45    98    99    1
    46    98    97    1
    47    99   100    2
    48   121   122    2
    49   121   128   am
    50     5     6    1
    51    31    30    2
    52     8     6    1
    53    23    26    1
    54    28    29    1
    55     6     7    1
    56   128   129    1
    57    30    29    1
    58    27    26    1
    59   143   141    1
    60    93    92    2
    61    29    32    1
    62   134   133    2
    63    32    34    1
    64    32    33    1
    65   129   130    1
    66   129   132    1
    67    92    91    1
    68   133   135   am
    69   133   132    1
    70   130   131    2
    71   141   140    1
    72   141   142    1
    73   137   136    1
    74   137   140    1
    75   137   138    1
    76   156   154   ar
    77    91    94    1
    78    91    90    1
    79   138   139    2
    80    94    95    1
    81    94    96    1
    82   154   153    1
    83   154   155   ar
    84    86    85    2
    85   153   150    1
    86    90    85   am
    87    81    80    1
    88    47    48    1
    89    47    46    1
    90    85    84    1
    91   147   146    2
    92    45    46    1
    93    45    44    1
    94    41    42    1
    95    41    44    1
    96    41    40    1
    97    42    43    2
    98   148   145    1
    99    89    87    1
   100    82    80    1
   101   146   149   am
   102   146   145    1
   103   152   151    2
   104   150   149    1
   105   150   151    1
   106    80    79    1
   107    39    36    1
   108    84    87    1
   109    84    83    1
   110   145   144    1
   111    36    37    1
   112    36    35    1
   113    87    88    1
   114    83    77   am
   115    37    38    2
   116    79    76    1
   117    77    76    1
   118    77    78    2
   119    76    75    1
   120    54    53    1
   121    70    69    2
   122    65    63   ar
   123    65    66   ar
   124    63    61   ar
   125    75    69   am
   126    55    53    1
   127    69    68    1
   128    66    64   ar
   129    53    50    1
   130    61    60    1
   131    61    62   ar
   132    60    57    1
   133    59    58    2
   134    56    57    1
   135    64    62   ar
   136    58    57    1
   137    58    67   am
   138    49    50    1
   139    50    51    1
   140    68    67    1
   141    68    71    1
   142    71    72    1
   143    51    52    2
   144    72    74   ar
   145    72    73   ar
