@<TRIPOS>MOLECULE
tmp/2vzdA03.pdb
 86 80 0 0 0
SMALL
GASTEIGER

@<TRIPOS>ATOM
      1  N        -20.5810   13.5860  -13.9460 N.3     1  GLU1       -0.1245
      2  CA       -20.7740   13.7470  -12.4740 C.3     1  GLU1        0.1567
      3  C        -20.8320   12.3820  -11.7790 C.2     1  GLU1        0.2260
      4  O        -20.7000   12.2880  -10.5550 O.2     1  GLU1       -0.2867
      5  CB       -22.0530   14.5430  -12.1940 C.3     1  GLU1        0.0388
      6  CG       -21.9800   15.4320  -10.9600 C.3     1  GLU1        0.1160
      7  CD       -23.2330   16.2690  -10.7650 C.2     1  GLU1        0.3649
      8  OE1      -24.2750   15.7020  -10.3650 O.co2   1  GLU1       -0.2457
      9  OE2      -23.1750   17.4950  -11.0040 O.co2   1  GLU1       -0.2457
     10  N        -19.6850   16.8530   -2.3980 N.3    98  LYS98      -0.1231
     11  CA       -20.5930   16.8200   -3.5510 C.3    98  LYS98       0.1678
     12  C        -22.0500   17.1310   -3.1820 C.2    98  LYS98       0.2434
     13  O        -22.6730   17.9800   -3.8230 O.2    98  LYS98      -0.2733
     14  CB       -20.5220   15.4630   -4.2680 C.3    98  LYS98       0.0284
     15  CG       -19.4670   15.3550   -5.3550 C.3    98  LYS98       0.0035
     16  CD       -19.6760   14.0830   -6.1690 C.3    98  LYS98       0.0206
     17  CE       -18.7320   14.0130   -7.3580 C.3    98  LYS98       0.1093
     18  NZ       -19.0620   12.8710   -8.2580 N.3    98  LYS98      -0.1314
     19  N        -22.5940   16.4540   -2.1470 N.am   99  PRO99      -0.2718
     20  CA       -24.0060   16.6510   -1.7810 C.3    99  PRO99       0.1535
     21  C        -24.2880   18.0180   -1.1700 C.2    99  PRO99       0.2598
     22  O        -23.4050   18.6180   -0.5470 O.2    99  PRO99      -0.2715
     23  CB       -24.2510   15.5800   -0.7070 C.3    99  PRO99       0.0310
     24  CG       -23.1050   14.6630   -0.7750 C.3    99  PRO99       0.0237
     25  CD       -21.9700   15.4960   -1.2020 C.3    99  PRO99       0.0939
     26  N        -25.5020   18.5190   -1.3750 N.am  100  ARG100     -0.1978
     27  CA       -25.9640   19.7010   -0.6600 C.3   100  ARG100      0.1597
     28  C        -26.2270   19.2760    0.7830 C.2   100  ARG100      0.2287
     29  O        -26.5960   18.1240    1.0260 O.2   100  ARG100     -0.2864
     30  CB       -27.2390   20.2780   -1.2940 C.3   100  ARG100      0.0334
     31  CG       -27.1180   20.6710   -2.7730 C.3   100  ARG100      0.0492
     32  CD       -26.1500   21.8320   -3.0090 C.3   100  ARG100      0.2205
     33  NE       -26.7170   23.1310   -2.6410 N.pl3 100  ARG100     -0.0865
     34  CZ       -26.1620   24.3070   -2.9300 C.cat 100  ARG100      0.5346
     35  NH1      -25.0160   24.3660   -3.5970 N.pl3 100  ARG100      0.1354
     36  NH2      -26.7570   25.4300   -2.5510 N.pl3 100  ARG100      0.1354
     37  N        -28.6610   19.7290    2.5670 N.3   102  GLU102     -0.1231
     38  CA       -30.0500   19.2310    2.5920 C.3   102  GLU102      0.1699
     39  C        -30.2100   17.7500    2.2200 C.2   102  GLU102      0.2592
     40  O        -31.1130   17.0780    2.7250 O.2   102  GLU102     -0.2718
     41  CB       -30.9400   20.0630    1.6590 C.3   102  GLU102      0.0402
     42  CG       -31.1950   21.4930    2.1090 C.3   102  GLU102      0.1161
     43  CD       -30.1320   22.4790    1.6390 C.2   102  GLU102      0.3649
     44  OE1      -29.0780   22.0450    1.1220 O.co2 102  GLU102     -0.2457
     45  OE2      -30.3570   23.6970    1.7950 O.co2 102  GLU102     -0.2457
     46  N        -29.3480   17.2570    1.3290 N.am  103  ASP103     -0.1974
     47  CA       -29.3430   15.8410    0.9220 C.3   103  ASP103      0.1709
     48  C        -29.0430   14.8950    2.0900 C.2   103  ASP103      0.2293
     49  O        -29.5520   13.7720    2.1390 O.2   103  ASP103     -0.2864
     50  CB       -28.3270   15.6000   -0.1980 C.3   103  ASP103      0.1436
     51  CG       -28.5980   16.4380   -1.4370 C.2   103  ASP103      0.3671
     52  OD1      -29.7800   16.6650   -1.7710 O.co2 103  ASP103     -0.2456
     53  OD2      -27.6190   16.8600   -2.0850 O.co2 103  ASP103     -0.2456
     54  N        -32.1060   15.0220    4.4680 N.3   106  ASN106     -0.1240
     55  CA       -33.1930   14.2680    3.8420 C.3   106  ASN106      0.1653
     56  C        -32.8960   12.7720    3.7240 C.2   106  ASN106      0.2266
     57  O        -33.6520   12.0380    3.0830 O.2   106  ASN106     -0.2867
     58  CB       -33.5470   14.8560    2.4720 C.3   106  ASN106      0.1155
     59  CG       -34.3000   16.1680    2.5780 C.2   106  ASN106      0.2627
     60  OD1      -35.1020   16.3720    3.4910 O.2   106  ASN106     -0.2716
     61  ND2      -34.0510   17.0620    1.6340 N.am  106  ASN106     -0.0877
     62  N        -30.5560   10.9780    2.1850 N.3   108  ASP108     -0.1239
     63  CA       -30.1160   10.4070    0.9230 C.3   108  ASP108      0.1674
     64  C        -28.9080    9.5100    1.1630 C.2   108  ASP108      0.2266
     65  O        -27.8500    9.9840    1.5910 O.2   108  ASP108     -0.2867
     66  CB       -29.7690   11.5000   -0.0840 C.3   108  ASP108      0.1410
     67  CG       -29.4950   10.9440   -1.4570 C.2   108  ASP108      0.3668
     68  OD1      -30.4260   10.3530   -2.0350 O.co2 108  ASP108     -0.2456
     69  OD2      -28.3600   11.0840   -1.9520 O.co2 108  ASP108     -0.2456
     70  N        -25.5660   10.1900   -0.8420 N.3   111  SER111     -0.1217
     71  CA       -24.9670   11.4130   -0.2990 C.3   111  SER111      0.1889
     72  C        -24.2740   11.1670    1.0430 C.2   111  SER111      0.2288
     73  O        -23.1610   11.6490    1.2670 O.2   111  SER111     -0.2866
     74  CB       -26.0330   12.4980   -0.1420 C.3   111  SER111      0.2089
     75  OG       -26.4540   12.9810   -1.4070 O.3   111  SER111     -0.2183
     76  N        -21.0960    9.0160    0.3920 N.3   114  ARG114     -0.1245
     77  CA       -20.0720    9.8590   -0.2310 C.3   114  ARG114      0.1563
     78  C        -19.3090   10.6970    0.7960 C.2   114  ARG114      0.2260
     79  O        -18.0790   10.7460    0.7720 O.2   114  ARG114     -0.2867
     80  CB       -20.7010   10.7710   -1.2940 C.3   114  ARG114      0.0307
     81  CG       -20.8790   10.1100   -2.6590 C.3   114  ARG114      0.0489
     82  CD       -21.9120   10.8320   -3.5190 C.3   114  ARG114      0.2205
     83  NE       -22.1550   10.1080   -4.7660 N.pl3 114  ARG114     -0.0865
     84  CZ       -23.3160   10.0700   -5.4160 C.cat 114  ARG114      0.5346
     85  NH1      -24.3810   10.7170   -4.9530 N.pl3 114  ARG114      0.1354
     86  NH2      -23.4130    9.3710   -6.5370 N.pl3 114  ARG114      0.1354
@<TRIPOS>BOND
     1     1     2    1
     2     2     5    1
     3     2     3    1
     4     5     6    1
     5     3     4    2
     6     9     7   ar
     7     6     7    1
     8     7     8   ar
     9    18    17    1
    10    17    16    1
    11    86    84    1
    12    16    15    1
    13    84    85    1
    14    84    83    2
    15    15    14    1
    16    83    82    1
    17    14    11    1
    18    13    12    2
    19    35    34    1
    20    11    12    1
    21    11    10    1
    22    82    81    1
    23    12    19   am
    24    32    31    1
    25    32    33    1
    26    34    33    2
    27    34    36    1
    28    31    30    1
    29    81    80    1
    30    19    20    1
    31    19    25    1
    32    53    51   ar
    33    68    67   ar
    34    69    67   ar
    35    20    21    1
    36    20    23    1
    37    52    51   ar
    38    67    66    1
    39    51    50    1
    40    75    74    1
    41    26    21   am
    42    26    27    1
    43    80    77    1
    44    30    27    1
    45    25    24    1
    46    21    22    2
    47    70    71    1
    48    24    23    1
    49    27    28    1
    50    71    74    1
    51    71    72    1
    52    77    76    1
    53    77    78    1
    54    50    47    1
    55    66    63    1
    56    79    78    2
    57    28    29    2
    58    47    46    1
    59    47    48    1
    60    63    64    1
    61    63    62    1
    62    72    73    2
    63    44    43   ar
    64    64    65    2
    65    46    39   am
    66    61    59   am
    67    43    45   ar
    68    43    42    1
    69    41    42    1
    70    41    38    1
    71    48    49    2
    72    39    38    1
    73    39    40    2
    74    58    59    1
    75    58    55    1
    76    37    38    1
    77    59    60    2
    78    57    56    2
    79    56    55    1
    80    55    54    1
