@<TRIPOS>MOLECULE
tmp/2vziB01.pdb
 74 70 0 0 0
SMALL
GASTEIGER

@<TRIPOS>ATOM
      1  N          9.2890   -3.5630    0.8880 N.3    42  THR42      -0.1218
      2  CA         8.8880   -3.4840    2.2850 C.3    42  THR42       0.1862
      3  C          8.3550   -4.7950    2.8360 C.2    42  THR42       0.2287
      4  O          8.5580   -5.0900    4.0160 O.2    42  THR42      -0.2866
      5  CB         7.8350   -2.3590    2.5410 C.3    42  THR42       0.1770
      6  OG1        6.7100   -2.5280    1.6690 O.3    42  THR42      -0.2211
      7  CG2        8.4330   -0.9870    2.3180 C.3    42  THR42       0.0375
      8  N         10.4960   -7.5160    4.9160 N.3    45  ALA45      -0.1231
      9  CA        11.3470   -7.0230    5.9990 C.3    45  ALA45       0.1694
     10  C         11.0700   -7.6320    7.3830 C.2    45  ALA45       0.2592
     11  O         11.9960   -7.7880    8.1700 O.2    45  ALA45      -0.2718
     12  CB        11.3060   -5.4980    6.0740 C.3    45  ALA45       0.0304
     13  N          9.8130   -7.9780    7.6720 N.am   46  ASP46      -0.1974
     14  CA         9.4660   -8.5410    8.9880 C.3    46  ASP46       0.1709
     15  C          9.7200  -10.0580    9.1060 C.2    46  ASP46       0.2293
     16  O          9.5070  -10.6520   10.1630 O.2    46  ASP46      -0.2864
     17  CB         8.0410   -8.1110    9.4370 C.3    46  ASP46       0.1436
     18  CG         6.9030   -8.8160    8.6650 C.2    46  ASP46       0.3671
     19  OD1        7.1470   -9.7510    7.8640 O.co2  46  ASP46      -0.2456
     20  OD2        5.7330   -8.4250    8.8860 O.co2  46  ASP46      -0.2456
     21  N          5.4970   -9.8980   14.5840 N.3    71  PRO71      -0.2102
     22  CA         6.6830   -9.3350   15.2460 C.3    71  PRO71       0.1504
     23  C          6.4750   -7.8750   15.6680 C.2    71  PRO71       0.2576
     24  O          5.9440   -7.0740   14.8940 O.2    71  PRO71      -0.2718
     25  CB         7.7900   -9.4760   14.1980 C.3    71  PRO71       0.0282
     26  CG         7.1040   -9.6450   12.9010 C.3    71  PRO71       0.0208
     27  CD         5.7350  -10.1650   13.1470 C.3    71  PRO71       0.0893
     28  N          6.8670   -7.5660   16.9070 N.am   72  ASP72      -0.1960
     29  CA         6.5860   -6.2740   17.5250 C.3    72  ASP72       0.1840
     30  C          7.8640   -5.4860   17.7910 C.2    72  ASP72       0.2623
     31  O          7.8160   -4.3750   18.3110 O.2    72  ASP72      -0.2715
     32  CB         5.7410   -6.4380   18.8080 C.3    72  ASP72       0.1450
     33  CG         6.5520   -6.9450   20.0240 C.2    72  ASP72       0.3671
     34  OD1        7.8050   -6.9080   20.0290 O.co2  72  ASP72      -0.2456
     35  OD2        5.9150   -7.3680   21.0130 O.co2  72  ASP72      -0.2456
     36  N          9.0050   -6.0760   17.4400 N.am   73  SER73      -0.1936
     37  CA        10.2850   -5.4080   17.6020 C.3    73  SER73       0.2055
     38  C         11.2140   -5.7500   16.4530 C.2    73  SER73       0.2643
     39  O         11.0060   -6.7190   15.7470 O.2    73  SER73      -0.2714
     40  CB        10.9360   -5.7890   18.9360 C.3    73  SER73       0.2130
     41  OG        11.5140   -7.0810   18.8650 O.3    73  SER73      -0.2179
     42  N         12.2370   -4.9250   16.2800 N.am   74  PHE74      -0.1973
     43  CA        13.3150   -5.1770   15.3390 C.3    74  PHE74       0.1639
     44  C         13.9400   -6.5560   15.5640 C.2    74  PHE74       0.2290
     45  O         14.2200   -7.2830   14.6090 O.2    74  PHE74      -0.2864
     46  CB        14.3700   -4.0820   15.5070 C.3    74  PHE74       0.0560
     47  CG        15.6140   -4.2950   14.6930 C.ar   74  PHE74      -0.0200
     48  CD1       15.6430   -3.9540   13.3410 C.ar   74  PHE74      -0.0042
     49  CD2       16.7660   -4.8050   15.2840 C.ar   74  PHE74      -0.0042
     50  CE1       16.7950   -4.1370   12.5870 C.ar   74  PHE74      -0.0003
     51  CE2       17.9220   -4.9960   14.5390 C.ar   74  PHE74      -0.0003
     52  CZ        17.9350   -4.6660   13.1850 C.ar   74  PHE74      -0.0000
     53  N         11.8450   -9.4830   14.3260 N.3    77  LYS77      -0.1245
     54  CA        11.9110   -9.5170   12.8620 C.3    77  LYS77       0.1561
     55  C         13.2270  -10.1430   12.3950 C.2    77  LYS77       0.2260
     56  O         13.2300  -10.9840   11.4990 O.2    77  LYS77      -0.2867
     57  CB        11.7220   -8.1170   12.2840 C.3    77  LYS77       0.0271
     58  CG        10.3320   -7.5600   12.5200 C.3    77  LYS77       0.0035
     59  CD        10.1460   -6.1580   11.9610 C.3    77  LYS77       0.0206
     60  CE         8.7130   -5.7060   12.2190 C.3    77  LYS77       0.1093
     61  NZ         8.4430   -4.2840   11.8980 N.3    77  LYS77      -0.1314
     62  N         15.6050   -6.8450    7.2850 N.3   104  VAL104     -0.1245
     63  CA        14.7670   -6.0570    8.1950 C.3   104  VAL104      0.1561
     64  C         14.8960   -4.5580    7.9010 C.2   104  VAL104      0.2260
     65  O         13.9410   -3.8090    8.0480 O.2   104  VAL104     -0.2867
     66  CB        15.0570   -6.3740    9.7050 C.3   104  VAL104      0.0252
     67  CG1       14.2100   -5.4880   10.6160 C.3   104  VAL104      0.0019
     68  CG2       14.7810   -7.8390   10.0050 C.3   104  VAL104      0.0019
     69  N         15.1800   -3.2450    5.0410 N.3   106  CYS106     -0.1235
     70  CA        14.6120   -3.0160    3.7150 C.3   106  CYS106      0.1677
     71  C         15.6700   -2.7220    2.6600 C.2   106  CYS106      0.2270
     72  O         15.4180   -1.9150    1.7600 O.2   106  CYS106     -0.2867
     73  CB        13.5720   -1.8740    3.7130 C.3   106  CYS106      0.0956
     74  SG        12.0720   -2.1430    4.6950 S.3   106  CYS106     -0.0801
@<TRIPOS>BOND
     1     1     2    1
     2     6     5    1
     3    72    71    2
     4     2     5    1
     5     2     3    1
     6     7     5    1
     7    71    70    1
     8     3     4    2
     9    73    70    1
    10    73    74    1
    11    70    69    1
    12     8     9    1
    13     9    12    1
    14     9    10    1
    15    62    63    1
    16    10    13   am
    17    10    11    2
    18    13    14    1
    19    19    18   ar
    20    64    65    2
    21    64    63    1
    22    63    66    1
    23    18    20   ar
    24    18    17    1
    25    14    15    1
    26    14    17    1
    27    15    16    2
    28    66    68    1
    29    66    67    1
    30    56    55    2
    31    61    60    1
    32    59    60    1
    33    59    58    1
    34    57    58    1
    35    57    54    1
    36    55    54    1
    37    50    52   ar
    38    50    48   ar
    39    54    53    1
    40    26    27    1
    41    26    25    1
    42    27    21    1
    43    52    51   ar
    44    48    47   ar
    45    25    22    1
    46    51    49   ar
    47    21    22    1
    48    45    44    2
    49    47    49   ar
    50    47    46    1
    51    24    23    2
    52    22    23    1
    53    43    46    1
    54    43    44    1
    55    43    42    1
    56    23    28   am
    57    39    38    2
    58    42    38   am
    59    38    37    1
    60    28    29    1
    61    36    37    1
    62    36    30   am
    63    29    30    1
    64    29    32    1
    65    37    40    1
    66    30    31    2
    67    32    33    1
    68    41    40    1
    69    33    34   ar
    70    33    35   ar
