@<TRIPOS>MOLECULE
tmp/2vzkA00.pdb
 86 81 0 0 0
SMALL
GASTEIGER

@<TRIPOS>ATOM
      1  N         18.6020    8.0790  -75.1810 N.3    69  ALA69      -0.1245
      2  CA        18.0910    6.6890  -75.1400 C.3    69  ALA69       0.1562
      3  C         19.1140    5.6520  -74.8040 C.2    69  ALA69       0.2260
      4  O         18.7390    4.6070  -74.3050 O.2    69  ALA69      -0.2867
      5  CB        17.3890    6.2770  -76.4950 C.3    69  ALA69       0.0290
      6  N         15.6150    7.4110  -72.3330 N.3   104  THR104     -0.1203
      7  CA        14.7590    7.8700  -73.4140 C.3   104  THR104      0.1994
      8  C         15.2890    9.1250  -73.9980 C.2   104  THR104      0.2618
      9  O         15.8160    9.9820  -73.2860 O.2   104  THR104     -0.2717
     10  CB        13.2190    8.0950  -72.9320 C.3   104  THR104      0.1784
     11  OG1       12.4210    8.6480  -74.0030 O.3   104  THR104     -0.2211
     12  CG2       13.1480    9.0140  -71.7680 C.3   104  THR104      0.0376
     13  N         15.0520    9.2580  -75.2900 N.am  105  GLY105     -0.1956
     14  CA        15.5280   10.3730  -76.0760 C.3   105  GLY105      0.1869
     15  C         16.2270    9.8900  -77.3370 C.2   105  GLY105      0.2309
     16  O         15.8720    8.8660  -77.9110 O.2   105  GLY105     -0.2863
     17  N         18.5740    8.3810  -80.2230 N.3   107  ILE107     -0.1245
     18  CA        19.2360    7.1420  -80.5410 C.3   107  ILE107      0.1561
     19  C         20.6170    7.4730  -81.2030 C.2   107  ILE107      0.2260
     20  O         20.7470    8.3640  -82.0230 O.2   107  ILE107     -0.2867
     21  CB        18.3190    6.2740  -81.4890 C.3   107  ILE107      0.0252
     22  CG1       17.0400    5.8560  -80.7540 C.3   107  ILE107      0.0019
     23  CG2       19.0600    5.0530  -81.9980 C.3   107  ILE107      0.0019
     24  CD1       15.9300    5.2240  -81.6020 C.3   107  ILE107      0.0001
     25  N         10.2360   14.0170  -72.5740 N.3   141  THR141     -0.1203
     26  CA        11.0590   14.4700  -73.6850 C.3   141  THR141      0.1994
     27  C         10.2080   15.4290  -74.5460 C.2   141  THR141      0.2619
     28  O         10.1360   16.6210  -74.2550 O.2   141  THR141     -0.2717
     29  CB        11.6370   13.2610  -74.4970 C.3   141  THR141      0.1784
     30  OG1       10.5430   12.4490  -74.9230 O.3   141  THR141     -0.2211
     31  CG2       12.5230   12.4390  -73.6510 C.3   141  THR141      0.0376
     32  N          9.5400   14.8940  -75.5700 N.am  142  THR142     -0.1938
     33  CA         8.7100   15.7080  -76.4270 C.3   142  THR142      0.2028
     34  C          7.2670   15.7870  -75.8890 C.2   142  THR142      0.2642
     35  O          6.4280   16.4020  -76.5050 O.2   142  THR142     -0.2714
     36  CB         8.6660   15.1900  -77.8650 C.3   142  THR142      0.1808
     37  OG1        8.1530   13.8540  -77.8480 O.3   142  THR142     -0.2208
     38  CG2       10.0200   15.2190  -78.5080 C.3   142  THR142      0.0379
     39  N          7.0050   15.2430  -74.7060 N.am  143  ASP143     -0.1971
     40  CA         5.7480   15.5210  -73.9920 C.3   143  ASP143      0.1709
     41  C          5.5470   17.0280  -73.7630 C.2   143  ASP143      0.2293
     42  O          6.4990   17.7660  -73.5670 O.2   143  ASP143     -0.2864
     43  CB         5.7910   14.8320  -72.6420 C.3   143  ASP143      0.1436
     44  CG         6.0490   13.3630  -72.7520 C.2   143  ASP143      0.3671
     45  OD1        7.2220   12.9630  -73.0280 O.co2 143  ASP143     -0.2456
     46  OD2        5.0630   12.6500  -72.5430 O.co2 143  ASP143     -0.2456
     47  N          5.3050    8.6490  -69.7730 N.3   163  LYS163     -0.1231
     48  CA         5.7690    9.6350  -70.7060 C.3   163  LYS163      0.1693
     49  C          5.8280    8.9120  -72.0380 C.2   163  LYS163      0.2593
     50  O          5.8180    7.6560  -72.0800 O.2   163  LYS163     -0.2718
     51  CB         7.1060   10.2240  -70.1890 C.3   163  LYS163      0.0285
     52  CG         8.2430   10.3210  -71.1400 C.3   163  LYS163      0.0035
     53  CD         8.9010    9.0320  -71.3950 C.3   163  LYS163      0.0206
     54  CE         9.9800    9.2640  -72.4360 C.3   163  LYS163      0.1093
     55  NZ         9.5130    9.8780  -73.6720 N.3   163  LYS163     -0.1314
     56  N          5.8300    9.6930  -73.1130 N.am  164  GLY164     -0.1942
     57  CA         6.0530    9.1770  -74.4640 C.3   164  GLY164      0.2014
     58  C          4.9060    9.5500  -75.3560 C.2   164  GLY164      0.2639
     59  O          3.7860    9.0770  -75.1560 O.2   164  GLY164     -0.2714
     60  N          5.1650   10.4290  -76.3140 N.am  165  VAL165     -0.1963
     61  CA         4.1390   10.8750  -77.2550 C.3   165  VAL165      0.1727
     62  C          4.6050   10.8810  -78.7160 C.2   165  VAL165      0.2617
     63  O          3.9200   11.3780  -79.5820 O.2   165  VAL165     -0.2715
     64  CB         3.5880   12.2660  -76.8640 C.3   165  VAL165      0.0290
     65  CG1        2.8620   12.1930  -75.5370 C.3   165  VAL165      0.0023
     66  CG2        4.6750   13.3050  -76.8460 C.3   165  VAL165      0.0023
     67  N          5.7710   10.3130  -78.9770 N.am  166  GLY166     -0.1940
     68  CA         6.2030   10.0020  -80.3450 C.3   166  GLY166      0.2014
     69  C          7.0530    8.7640  -80.2070 C.2   166  GLY166      0.2639
     70  O          7.4170    8.4560  -79.0970 O.2   166  GLY166     -0.2714
     71  N          7.3550    8.0980  -81.3260 N.am  167  MET167     -0.1963
     72  CA         7.9310    6.7380  -81.3530 C.3   167  MET167      0.1736
     73  C          7.1210    5.8770  -80.4160 C.2   167  MET167      0.2616
     74  O          7.6400    5.3180  -79.4410 O.2   167  MET167     -0.2715
     75  CB         9.4090    6.7740  -80.9590 C.3   167  MET167      0.0427
     76  CG        10.1880    5.5660  -81.3060 C.3   167  MET167      0.0599
     77  SD        11.9510    5.6880  -80.9660 S.3   167  MET167     -0.1393
     78  CE        12.4720    6.6810  -82.3380 C.3   167  MET167      0.0692
     79  N          5.8290    5.8150  -80.7050 N.am  168  LEU168     -0.1977
     80  CA         4.8600    5.2400  -79.7840 C.3   168  LEU168      0.1596
     81  C          3.8000    4.3050  -80.3680 C.2   168  LEU168      0.2287
     82  O          2.7270    4.7320  -80.7310 O.2   168  LEU168     -0.2864
     83  CB         4.1820    6.3730  -79.0220 C.3   168  LEU168      0.0297
     84  CG         3.8650    5.8380  -77.6150 C.3   168  LEU168      0.0022
     85  CD1        4.6040    6.7010  -76.5740 C.3   168  LEU168      0.0001
     86  CD2        2.3690    5.6820  -77.3940 C.3   168  LEU168      0.0001
@<TRIPOS>BOND
     1    78    77    1
     2    20    19    2
     3    23    21    1
     4    24    22    1
     5    21    22    1
     6    21    18    1
     7    72    71    1
     8    72    75    1
     9    72    73    1
    10    71    69   am
    11    76    77    1
    12    76    75    1
    13    19    18    1
    14    82    81    2
    15    79    73   am
    16    79    80    1
    17    18    17    1
    18    73    74    2
    19    81    80    1
    20    68    69    1
    21    68    67    1
    22    69    70    2
    23    80    83    1
    24    63    62    2
    25    83    84    1
    26    67    62   am
    27    62    61    1
    28    38    36    1
    29    16    15    2
    30    36    37    1
    31    36    33    1
    32    84    86    1
    33    84    85    1
    34    15    14    1
    35    61    64    1
    36    61    60    1
    37    64    66    1
    38    64    65    1
    39    35    34    2
    40     5     2    1
    41    33    34    1
    42    33    32    1
    43    60    58   am
    44    14    13    1
    45    34    39   am
    46    32    27   am
    47    58    59    2
    48    58    57    1
    49    13     8   am
    50     1     2    1
    51     2     3    1
    52    30    29    1
    53     3     4    2
    54    39    40    1
    55    27    28    2
    56    27    26    1
    57    29    26    1
    58    29    31    1
    59    57    56    1
    60    11    10    1
    61     8     7    1
    62     8     9    2
    63    40    41    1
    64    40    43    1
    65    41    42    2
    66    26    25    1
    67    55    54    1
    68     7    10    1
    69     7     6    1
    70    56    49   am
    71    45    44   ar
    72    10    12    1
    73    44    43    1
    74    44    46   ar
    75    54    53    1
    76    50    49    2
    77    49    48    1
    78    53    52    1
    79    52    51    1
    80    48    51    1
    81    48    47    1
