@<TRIPOS>MOLECULE
tmp/2vzlA01.pdb
 86 79 0 0 0
SMALL
GASTEIGER

@<TRIPOS>ATOM
      1  N        -12.8180   29.4020    2.7720 N.3    72  SER72      -0.1217
      2  CA       -11.6180   29.3570    1.9500 C.3    72  SER72       0.1889
      3  C        -10.4400   28.9220    2.8100 C.2    72  SER72       0.2288
      4  O        -10.2920   29.3780    3.9420 O.2    72  SER72      -0.2866
      5  CB       -11.3220   30.7360    1.3560 C.3    72  SER72       0.2089
      6  OG       -12.4050   31.2310    0.5930 O.3    72  SER72      -0.2183
      7  N        -14.1900   35.7120    9.5870 N.3    92  ARG92      -0.1245
      8  CA       -14.8100   36.9150   10.1350 C.3    92  ARG92       0.1563
      9  C        -16.0800   36.5410   10.9000 C.2    92  ARG92       0.2260
     10  O        -16.9070   35.7850   10.3930 O.2    92  ARG92      -0.2867
     11  CB       -15.1650   37.8670    8.9880 C.3    92  ARG92       0.0307
     12  CG       -15.8690   39.1570    9.3890 C.3    92  ARG92       0.0489
     13  CD       -16.0780   40.0960    8.2140 C.3    92  ARG92       0.2205
     14  NE       -16.8930   41.2580    8.5600 N.pl3  92  ARG92      -0.0865
     15  CZ       -17.2400   42.2150    7.7020 C.cat  92  ARG92       0.5346
     16  NH1      -16.8500   42.1580    6.4330 N.pl3  92  ARG92       0.1354
     17  NH2      -17.9870   43.2360    8.1100 N.pl3  92  ARG92       0.1354
     18  N        -19.6010   36.9680   11.6400 N.3    94  LEU94      -0.1245
     19  CA       -20.7550   37.6170   11.0460 C.3    94  LEU94       0.1561
     20  C        -21.5760   38.2720   12.1480 C.2    94  LEU94       0.2260
     21  O        -21.9610   37.6260   13.1210 O.2    94  LEU94      -0.2867
     22  CB       -21.6220   36.6240   10.2680 C.3    94  LEU94       0.0270
     23  CG       -22.9110   37.2110    9.6800 C.3    94  LEU94       0.0019
     24  CD1      -22.6030   38.3650    8.7320 C.3    94  LEU94       0.0001
     25  CD2      -23.7140   36.1430    8.9650 C.3    94  LEU94       0.0001
     26  N        -11.6450   41.5570   -1.3700 N.3   147  GLY147     -0.1225
     27  CA       -12.3060   42.3970   -0.3850 C.3   147  GLY147      0.1811
     28  C        -12.5400   41.5950    0.8790 C.2   147  GLY147      0.2280
     29  O        -13.1100   40.5050    0.8160 O.2   147  GLY147     -0.2866
     30  N        -12.3520   39.0750    3.8060 N.3   149  THR149     -0.1203
     31  CA       -11.8240   37.7110    3.8410 C.3   149  THR149      0.1994
     32  C        -11.7130   37.0680    2.4550 C.2   149  THR149      0.2618
     33  O        -11.3580   35.9040    2.3460 O.2   149  THR149     -0.2717
     34  CB       -12.6760   36.8110    4.7570 C.3   149  THR149      0.1784
     35  OG1      -14.0650   36.9260    4.4140 O.3   149  THR149     -0.2211
     36  CG2      -12.5880   37.2780    6.2060 C.3   149  THR149      0.0376
     37  N        -12.0320   37.8200    1.4050 N.am  150  GLY150     -0.1956
     38  CA       -11.6270   37.4750    0.0540 C.3   150  GLY150      0.1869
     39  C        -10.1140   37.3910   -0.1220 C.2   150  GLY150      0.2309
     40  O         -9.6250   36.8400   -1.1070 O.2   150  GLY150     -0.2863
     41  N         -8.3460   35.4890    1.5930 N.3   152  THR152     -0.1204
     42  CA        -7.9550   34.1510    2.0570 C.3   152  THR152      0.1979
     43  C         -7.2540   33.2630    1.0060 C.2   152  THR152      0.2459
     44  O         -6.1500   32.7930    1.2630 O.2   152  THR152     -0.2732
     45  CB        -9.1640   33.4340    2.6990 C.3   152  THR152      0.1783
     46  OG1       -9.6850   34.2440    3.7620 O.3   152  THR152     -0.2211
     47  CG2       -8.7440   32.1530    3.3880 C.3   152  THR152      0.0376
     48  N         -7.8580   33.0250   -0.1590 N.am  153  PRO153     -0.2728
     49  CA        -7.1640   32.2450   -1.1960 C.3   153  PRO153      0.1401
     50  C         -5.8990   32.9500   -1.7040 C.2   153  PRO153      0.2269
     51  O         -4.9340   32.2850   -2.0850 O.2   153  PRO153     -0.2865
     52  CB        -8.2160   32.1050   -2.3020 C.3   153  PRO153      0.0296
     53  CG        -9.1660   33.2310   -2.0780 C.3   153  PRO153      0.0237
     54  CD        -9.2050   33.4380   -0.5970 C.3   153  PRO153      0.0939
     55  N        -12.1740   37.4860   -5.2620 N.3   253  CYS253     -0.1221
     56  CA       -12.7650   36.8380   -4.0960 C.3   253  CYS253      0.1808
     57  C        -13.2420   37.8820   -3.1030 C.2   253  CYS253      0.2602
     58  O        -12.5640   38.8810   -2.8720 O.2   253  CYS253     -0.2717
     59  CB       -11.7620   35.8890   -3.4400 C.3   253  CYS253      0.0970
     60  SG       -12.4800   34.7900   -2.1920 S.3   253  CYS253     -0.0800
     61  N        -14.4130   37.6410   -2.5220 N.am  254  GLY254     -0.1943
     62  CA       -15.0200   38.5750   -1.5890 C.3   254  GLY254      0.1998
     63  C        -16.5330   38.6110   -1.7240 C.2   254  GLY254      0.2480
     64  O        -17.1460   37.6110   -2.1030 O.2   254  GLY254     -0.2729
     65  N        -17.1460   39.7550   -1.4230 N.am  255  PRO255     -0.2726
     66  CA       -18.6070   39.8610   -1.4680 C.3   255  PRO255      0.1402
     67  C        -19.1390   39.8480   -2.8930 C.2   255  PRO255      0.2269
     68  O        -18.5320   40.4580   -3.7710 O.2   255  PRO255     -0.2865
     69  CB       -18.8790   41.2180   -0.8070 C.3   255  PRO255      0.0296
     70  CG       -17.6600   42.0140   -1.0760 C.3   255  PRO255      0.0237
     71  CD       -16.5180   41.0300   -1.0250 C.3   255  PRO255      0.0939
     72  N        -14.8220   33.7060   -6.9820 N.3   293  GLU293     -0.1245
     73  CA       -15.3840   33.0290   -5.8330 C.3   293  GLU293      0.1567
     74  C        -15.9330   34.1110   -4.9060 C.2   293  GLU293      0.2260
     75  O        -15.2190   34.6520   -4.0660 O.2   293  GLU293     -0.2867
     76  CB       -14.3110   32.1770   -5.1480 C.3   293  GLU293      0.0388
     77  CG       -14.8500   31.0300   -4.3220 C.3   293  GLU293      0.1160
     78  CD       -15.3330   31.4820   -2.9690 C.2   293  GLU293      0.3649
     79  OE1      -14.5060   31.5300   -2.0250 O.co2 293  GLU293     -0.2457
     80  OE2      -16.5400   31.7880   -2.8570 O.co2 293  GLU293     -0.2457
     81  N        -19.7390   35.5220   -2.7250 N.3   295  SER295     -0.1217
     82  CA       -21.0070   35.0960   -2.1270 C.3   295  SER295      0.1889
     83  C        -21.6680   36.1980   -1.3000 C.2   295  SER295      0.2288
     84  O        -22.7790   36.0300   -0.7920 O.2   295  SER295     -0.2866
     85  CB       -20.7980   33.8590   -1.2480 C.3   295  SER295      0.2089
     86  OG       -20.0090   34.1610   -0.1050 O.3   295  SER295     -0.2183
@<TRIPOS>BOND
     1    72    73    1
     2    73    76    1
     3    73    74    1
     4    55    56    1
     5    76    77    1
     6    74    75    2
     7    77    78    1
     8    56    59    1
     9    56    57    1
    10    68    67    2
    11    59    60    1
    12    57    58    2
    13    57    61   am
    14    78    80   ar
    15    78    79   ar
    16    67    66    1
    17    81    82    1
    18    61    62    1
    19    52    53    1
    20    52    49    1
    21    82    83    1
    22    82    85    1
    23    64    63    2
    24    51    50    2
    25    53    54    1
    26    63    62    1
    27    63    65   am
    28    50    49    1
    29    66    65    1
    30    66    69    1
    31    65    71    1
    32    26    27    1
    33    83    84    2
    34    85    86    1
    35    49    48    1
    36    40    39    2
    37    70    71    1
    38    70    69    1
    39    54    48    1
    40    27    28    1
    41    48    43   am
    42    39    38    1
    43    38    37    1
    44     6     5    1
    45    29    28    2
    46    43    44    2
    47    43    42    1
    48     5     2    1
    49    37    32   am
    50    41    42    1
    51     2     1    1
    52     2     3    1
    53    42    45    1
    54    33    32    2
    55    32    31    1
    56    45    47    1
    57    45    46    1
    58     3     4    2
    59    30    31    1
    60    31    34    1
    61    35    34    1
    62    34    36    1
    63    16    15    1
    64    15    17    1
    65    15    14    2
    66    13    14    1
    67    13    12    1
    68    24    23    1
    69    25    23    1
    70    11    12    1
    71    11     8    1
    72     7     8    1
    73    23    22    1
    74     8     9    1
    75    22    19    1
    76    10     9    2
    77    19    18    1
    78    19    20    1
    79    20    21    2
