@<TRIPOS>MOLECULE
tmp/2vzmB01.pdb
 174 164 0 0 0
SMALL
GASTEIGER

@<TRIPOS>ATOM
      1  N         21.6750    7.7650    0.8240 N.3    62  TRP62      -0.1241
      2  CA        21.5440    6.3400    1.1740 C.3    62  TRP62       0.1605
      3  C         21.5240    5.3580   -0.0050 C.2    62  TRP62       0.2264
      4  O         21.8410    4.1620    0.1450 O.2    62  TRP62      -0.2867
      5  CB        20.3240    6.1460    2.0770 C.3    62  TRP62       0.0550
      6  CG        20.6100    6.6720    3.4520 C.ar   62  TRP62       0.0003
      7  CD1       20.4180    7.9590    3.9010 C.ar   62  TRP62       0.0946
      8  CD2       21.1290    5.9290    4.5610 C.ar   62  TRP62       0.0152
      9  NE1       20.7990    8.0580    5.2210 N.ar   62  TRP62      -0.2442
     10  CE2       21.2120    6.8240    5.6580 C.ar   62  TRP62       0.0810
     11  CE3       21.5050    4.5810    4.7440 C.ar   62  TRP62       0.0012
     12  CZ2       21.6860    6.4350    6.9010 C.ar   62  TRP62       0.0191
     13  CZ3       21.9580    4.1840    5.9890 C.ar   62  TRP62       0.0001
     14  CH2       22.0650    5.1190    7.0580 C.ar   62  TRP62       0.0015
     15  N         18.0300    1.4860    4.7760 N.3    69  LEU69      -0.1245
     16  CA        17.1870    2.2470    5.6850 C.3    69  LEU69       0.1561
     17  C         16.0640    1.3420    6.2230 C.2    69  LEU69       0.2260
     18  O         15.5610    0.4750    5.5100 O.2    69  LEU69      -0.2867
     19  CB        16.5970    3.4620    4.9440 C.3    69  LEU69       0.0270
     20  CG        17.5030    4.6540    4.5830 C.3    69  LEU69       0.0019
     21  CD1       16.9120    5.5070    3.4560 C.3    69  LEU69       0.0001
     22  CD2       17.7830    5.5110    5.8050 C.3    69  LEU69       0.0001
     23  N         12.9190    5.0670    8.8980 N.3    73  GLU73      -0.1245
     24  CA        13.9980    5.9650    8.4520 C.3    73  GLU73       0.1567
     25  C         13.7950    6.4730    7.0500 C.2    73  GLU73       0.2260
     26  O         14.0250    7.6600    6.7590 O.2    73  GLU73      -0.2867
     27  CB        15.3790    5.2890    8.5660 C.3    73  GLU73       0.0388
     28  CG        15.8280    5.1800   10.0040 C.3    73  GLU73       0.1160
     29  CD        16.8370    4.0380   10.2370 C.2    73  GLU73       0.3649
     30  OE1       17.2630    3.3680    9.2480 O.co2  73  GLU73      -0.2457
     31  OE2       17.1840    3.8120   11.4260 O.co2  73  GLU73      -0.2457
     32  N         11.9260    9.6290    6.1440 N.3    76  LEU76      -0.1231
     33  CA        12.4580   10.9140    6.5890 C.3    76  LEU76       0.1693
     34  C         13.7230   11.3540    5.8240 C.2    76  LEU76       0.2592
     35  O         14.2280   12.4600    6.0250 O.2    76  LEU76      -0.2718
     36  CB        12.7130   10.8330    8.0960 C.3    76  LEU76       0.0284
     37  CG        11.4560   10.7800    9.0090 C.3    76  LEU76       0.0019
     38  CD1       11.8850   10.4990   10.4390 C.3    76  LEU76       0.0001
     39  CD2       10.6110   12.0810    8.9990 C.3    76  LEU76       0.0001
     40  N         14.2300   10.4970    4.9530 N.am   77  ASN77      -0.1974
     41  CA        15.5760   10.7130    4.4410 C.3    77  ASN77       0.1688
     42  C         15.6450   11.6600    3.2390 C.2    77  ASN77       0.2292
     43  O         16.7460   11.9610    2.7690 O.2    77  ASN77      -0.2864
     44  CB        16.2960    9.3720    4.1630 C.3    77  ASN77       0.1181
     45  CG        15.8080    8.7080    2.8910 C.2    77  ASN77       0.2629
     46  OD1       14.6510    8.3070    2.7880 O.2    77  ASN77      -0.2716
     47  ND2       16.6840    8.5890    1.9160 N.am   77  ASN77      -0.0877
     48  N         20.4500   17.1140    4.1060 N.3    81  LEU81      -0.1231
     49  CA        21.6280   16.5310    4.7690 C.3    81  LEU81       0.1693
     50  C         21.8680   15.0910    4.2830 C.2    81  LEU81       0.2591
     51  O         22.9870   14.5530    4.3700 O.2    81  LEU81      -0.2718
     52  CB        21.5220   16.5750    6.3100 C.3    81  LEU81       0.0284
     53  CG        22.8410   16.2400    7.1000 C.3    81  LEU81       0.0019
     54  CD1       24.1600   16.9120    6.5450 C.3    81  LEU81       0.0001
     55  CD2       22.7010   16.6150    8.5570 C.3    81  LEU81       0.0001
     56  N         20.8390   14.4540    3.7560 N.am   82  GLU82      -0.1979
     57  CA        21.0080   13.0880    3.2820 C.3    82  GLU82       0.1602
     58  C         20.8170   13.0560    1.7500 C.2    82  GLU82       0.2287
     59  O         20.1780   12.1290    1.1970 O.2    82  GLU82      -0.2864
     60  CB        20.0180   12.1550    4.0130 C.3    82  GLU82       0.0415
     61  CG        20.3640   12.0870    5.5420 C.3    82  GLU82       0.1163
     62  CD        19.4190   11.2580    6.3510 C.2    82  GLU82       0.3649
     63  OE1       18.2190   11.6340    6.5140 O.co2  82  GLU82      -0.2457
     64  OE2       19.8980   10.2230    6.8610 O.co2  82  GLU82      -0.2457
     65  N         16.0830    9.3230   20.0970 N.3   166  PHE166     -0.1227
     66  CA        17.0160    9.2020   18.9770 C.3   166  PHE166      0.1736
     67  C         18.4580    9.1440   19.4980 C.2   166  PHE166      0.2595
     68  O         19.3320    8.5530   18.8590 O.2   166  PHE166     -0.2718
     69  CB        16.9010   10.3680   17.9880 C.3   166  PHE166      0.0547
     70  CG        15.5260   10.5640   17.3830 C.ar  166  PHE166     -0.0202
     71  CD1       15.1510   11.8210   16.9050 C.ar  166  PHE166     -0.0042
     72  CD2       14.6170    9.5210   17.2870 C.ar  166  PHE166     -0.0042
     73  CE1       13.8840   12.0250   16.3570 C.ar  166  PHE166     -0.0003
     74  CE2       13.3640    9.7160   16.7290 C.ar  166  PHE166     -0.0003
     75  CZ        12.9900   10.9610   16.2740 C.ar  166  PHE166     -0.0000
     76  N         18.6890    9.7440   20.6630 N.am  167  VAL167     -0.1980
     77  CA        20.0340    9.9220   21.2080 C.3   167  VAL167      0.1595
     78  C         20.4350    8.7930   22.1360 C.2   167  VAL167      0.2287
     79  O         21.4630    8.1380   21.9240 O.2   167  VAL167     -0.2864
     80  CB        20.1600   11.2670   21.9650 C.3   167  VAL167      0.0276
     81  CG1       21.2800   11.2200   23.0110 C.3   167  VAL167      0.0022
     82  CG2       20.3710   12.4120   20.9720 C.3   167  VAL167      0.0022
     83  N         10.5370    7.6090   15.7370 N.3   179  MET179     -0.1245
     84  CA        10.6400    8.0800   14.3540 C.3   179  MET179      0.1570
     85  C          9.3110    8.0020   13.6370 C.2   179  MET179      0.2261
     86  O          8.9150    8.9430   12.9330 O.2   179  MET179     -0.2867
     87  CB        11.6190    7.2070   13.5720 C.3   179  MET179      0.0387
     88  CG        12.9810    7.7960   13.3950 C.3   179  MET179      0.0595
     89  SD        14.0840    6.5660   12.6730 S.3   179  MET179     -0.1393
     90  CE        14.9600    6.0340   14.1440 C.3   179  MET179      0.0692
     91  N         11.3280   17.9480    9.1210 N.3   226  HIS226     -0.1226
     92  CA        12.0920   17.0850   10.0090 C.3   226  HIS226      0.1752
     93  C         13.5390   17.5750   10.2440 C.2   226  HIS226      0.2595
     94  O         13.9750   17.7310   11.4070 O.2   226  HIS226     -0.2718
     95  CB        12.0940   15.6710    9.4370 C.3   226  HIS226      0.0759
     96  CG        13.1780   14.7980    9.9940 C.ar  226  HIS226      0.0818
     97  ND1       14.2740   14.4020    9.2540 N.ar  226  HIS226     -0.2268
     98  CD2       13.3350   14.2560   11.2260 C.ar  226  HIS226      0.1154
     99  CE1       15.0660   13.6610   10.0090 C.ar  226  HIS226      0.1986
    100  NE2       14.5170   13.5540   11.2090 N.ar  226  HIS226     -0.2212
    101  N         14.2850   17.8000    9.1510 N.am  227  ILE227     -0.1980
    102  CA        15.7180   18.1850    9.2830 C.3   227  ILE227      0.1595
    103  C         15.8530   19.5590    9.9610 C.2   227  ILE227      0.2287
    104  O         16.7370   19.7130   10.7960 O.2   227  ILE227     -0.2864
    105  CB        16.4910   18.1170    7.9360 C.3   227  ILE227      0.0276
    106  CG1       18.0260   17.9370    8.1450 C.3   227  ILE227      0.0022
    107  CG2       16.2230   19.4070    7.0740 C.3   227  ILE227      0.0022
    108  CD1       18.4180   16.5150    8.7730 C.3   227  ILE227      0.0001
    109  N         15.0830   18.8570   13.7640 N.3   230  VAL230     -0.1231
    110  CA        15.9320   17.9140   14.4800 C.3   230  VAL230      0.1692
    111  C         17.4140   18.3310   14.4480 C.2   230  VAL230      0.2591
    112  O         18.1410   18.1510   15.4500 O.2   230  VAL230     -0.2718
    113  CB        15.7920   16.4780   13.9190 C.3   230  VAL230      0.0266
    114  CG1       16.8520   15.5720   14.4770 C.3   230  VAL230      0.0020
    115  CG2       14.4230   15.9050   14.2590 C.3   230  VAL230      0.0020
    116  N         17.8700   18.8950   13.3270 N.am  231  ALA231     -0.1980
    117  CA        19.3240   19.1630   13.1870 C.3   231  ALA231      0.1597
    118  C         19.8870   20.1770   14.2030 C.2   231  ALA231      0.2287
    119  O         21.0520   20.0600   14.6280 O.2   231  ALA231     -0.2864
    120  CB        19.6840   19.6040   11.7540 C.3   231  ALA231      0.0319
    121  N         19.3210   18.7780   19.3500 N.3   234  GLU234     -0.1231
    122  CA        20.3400   18.2510   20.2600 C.3   234  GLU234      0.1699
    123  C         21.5720   19.1280   20.1870 C.2   234  GLU234      0.2592
    124  O         22.2640   19.2880   21.1910 O.2   234  GLU234     -0.2718
    125  CB        20.7700   16.7860   19.9770 C.3   234  GLU234      0.0402
    126  CG        19.8800   15.6890   20.5780 C.3   234  GLU234      0.1161
    127  CD        19.7580   15.7270   22.1140 C.2   234  GLU234      0.3649
    128  OE1       20.3570   16.6050   22.7770 O.co2 234  GLU234     -0.2457
    129  OE2       19.0210   14.8660   22.6590 O.co2 234  GLU234     -0.2457
    130  N         21.8780   19.6660   19.0080 N.am  235  THR235     -0.1953
    131  CA        23.1330   20.3900   18.8490 C.3   235  THR235      0.1897
    132  C         23.1830   21.6710   19.6830 C.2   235  THR235      0.2313
    133  O         24.1210   21.8710   20.4650 O.2   235  THR235     -0.2863
    134  CB        23.4680   20.6990   17.3600 C.3   235  THR235      0.1794
    135  OG1       22.3370   21.3030   16.7430 O.3   235  THR235     -0.2208
    136  CG2       23.7940   19.4140   16.6060 C.3   235  THR235      0.0378
    137  N         28.7740   18.1900   18.1930 N.3   278  VAL278     -0.1245
    138  CA        28.9380   17.1480   17.1990 C.3   278  VAL278      0.1561
    139  C         30.3230   16.5250   17.3100 C.2   278  VAL278      0.2260
    140  O         31.3040   17.1200   16.8530 O.2   278  VAL278     -0.2867
    141  CB        28.6630   17.6790   15.7620 C.3   278  VAL278      0.0252
    142  CG1       28.7400   16.5210   14.7250 C.3   278  VAL278      0.0019
    143  CG2       27.3010   18.3830   15.7060 C.3   278  VAL278      0.0019
    144  N         27.6500   13.4410   10.3640 N.3   282  THR282     -0.1218
    145  CA        26.6370   12.4430    9.9650 C.3   282  THR282      0.1862
    146  C         27.1940   11.4990    8.8620 C.2   282  THR282      0.2287
    147  O         28.2450   11.7820    8.2390 O.2   282  THR282     -0.2866
    148  CB        25.3550   13.1300    9.5010 C.3   282  THR282      0.1770
    149  OG1       25.6580   13.9750    8.3690 O.3   282  THR282     -0.2211
    150  CG2       24.8010   13.9780   10.6540 C.3   282  THR282      0.0375
    151  N         26.4990    8.2120   22.8760 N.3   380  ASN380     -0.1240
    152  CA        26.4270    8.3000   21.4160 C.3   380  ASN380      0.1653
    153  C         27.6950    8.8840   20.7250 C.2   380  ASN380      0.2266
    154  O         28.0990   10.0070   20.9850 O.2   380  ASN380     -0.2867
    155  CB        25.1740    9.0750   21.0260 C.3   380  ASN380      0.1155
    156  CG        25.1070    9.3370   19.5590 C.2   380  ASN380      0.2627
    157  OD1       24.9170   10.4840   19.1430 O.2   380  ASN380     -0.2716
    158  ND2       25.3050    8.2870   18.7520 N.am  380  ASN380     -0.0877
    159  N         28.2220   10.0940   17.9880 N.3   382  MET382     -0.1230
    160  CA        27.9040   11.2000   17.1010 C.3   382  MET382      0.1702
    161  C         27.7280   12.5200   17.8830 C.2   382  MET382      0.2592
    162  O         28.1120   13.5780   17.3990 O.2   382  MET382     -0.2718
    163  CB        26.6300   10.8740   16.3140 C.3   382  MET382      0.0401
    164  CG        26.3040   11.8490   15.2070 C.3   382  MET382      0.0596
    165  SD        25.1670   11.1960   13.9290 S.3   382  MET382     -0.1393
    166  CE        26.1910    9.9100   13.1780 C.3   382  MET382      0.0692
    167  N         27.1440   12.4330   19.0800 N.am  383  ILE383     -0.1980
    168  CA        26.8250   13.5870   19.9120 C.3   383  ILE383      0.1595
    169  C         27.6680   13.6140   21.2090 C.2   383  ILE383      0.2287
    170  O         27.8800   12.5790   21.8490 O.2   383  ILE383     -0.2864
    171  CB        25.2880   13.6360   20.2570 C.3   383  ILE383      0.0276
    172  CG1       24.4630   14.1810   19.0810 C.3   383  ILE383      0.0022
    173  CG2       24.9990   14.5310   21.4760 C.3   383  ILE383      0.0022
    174  CD1       24.6800   15.6750   18.8090 C.3   383  ILE383      0.0001
@<TRIPOS>BOND
     1     3     4    2
     2     3     2    1
     3     1     2    1
     4     2     5    1
     5    59    58    2
     6    58    57    1
     7    47    45   am
     8     5     6    1
     9    43    42    2
    10    46    45    2
    11    45    44    1
    12    42    41    1
    13    57    56    1
    14    57    60    1
    15     6     7   ar
    16     6     8   ar
    17    21    20    1
    18    56    50   am
    19     7     9   ar
    20    60    61    1
    21    48    49    1
    22    44    41    1
    23    50    51    2
    24    50    49    1
    25    41    40    1
    26     8    11   ar
    27     8    10   ar
    28    20    19    1
    29    20    22    1
    30    11    13   ar
    31    49    52    1
    32    15    16    1
    33    19    16    1
    34    40    34   am
    35     9    10   ar
    36    18    17    2
    37    61    62    1
    38    10    12   ar
    39    16    17    1
    40    34    35    2
    41    34    33    1
    42    13    14   ar
    43    32    33    1
    44    52    53    1
    45    62    63   ar
    46    62    64   ar
    47    54    53    1
    48    33    36    1
    49    26    25    2
    50    12    14   ar
    51    25    24    1
    52   107   105    1
    53    53    55    1
    54   105   106    1
    55   105   102    1
    56    36    37    1
    57   106   108    1
    58   147   146    2
    59   149   148    1
    60    24    27    1
    61    24    23    1
    62    27    28    1
    63   146   145    1
    64    39    37    1
    65    37    38    1
    66    91    92    1
    67   101   102    1
    68   101    93   am
    69    30    29   ar
    70    97    96   ar
    71    97    99   ar
    72   102   103    1
    73    95    96    1
    74    95    92    1
    75   148   145    1
    76   148   150    1
    77   103   104    2
    78   145   144    1
    79    96    98   ar
    80    28    29    1
    81    92    93    1
    82    99   100   ar
    83    29    31   ar
    84    93    94    2
    85   100    98   ar
    86   120   117    1
    87    89    88    1
    88    89    90    1
    89    86    85    2
    90   166   165    1
    91   117   116    1
    92   117   118    1
    93   116   111   am
    94    88    87    1
    95    87    84    1
    96    85    84    1
    97   109   110    1
    98   113   115    1
    99   113   114    1
   100   113   110    1
   101   165   164    1
   102   118   119    2
   103    84    83    1
   104   111   110    1
   105   111   112    2
   106   142   141    1
   107   164   163    1
   108   143   141    1
   109   141   138    1
   110    75    73   ar
   111    75    74   ar
   112   163   160    1
   113    73    71   ar
   114   136   134    1
   115    74    72   ar
   116   135   134    1
   117   140   139    2
   118    71    70   ar
   119   160   161    1
   120   160   159    1
   121   138   139    1
   122   138   137    1
   123    72    70   ar
   124   134   131    1
   125    70    69    1
   126   162   161    2
   127   161   167   am
   128    69    66    1
   129   158   156   am
   130   174   172    1
   131   131   130    1
   132   131   132    1
   133    68    67    2
   134    66    67    1
   135    66    65    1
   136   130   123   am
   137   167   168    1
   138   172   171    1
   139   157   156    2
   140   121   122    1
   141    67    76   am
   142   156   155    1
   143   132   133    2
   144   168   171    1
   145   168   169    1
   146   125   122    1
   147   125   126    1
   148   123   122    1
   149   123   124    2
   150   171   173    1
   151   126   127    1
   152    76    77    1
   153   153   154    2
   154   153   152    1
   155    82    80    1
   156   155   152    1
   157    77    80    1
   158    77    78    1
   159   169   170    2
   160   152   151    1
   161    79    78    2
   162    80    81    1
   163   127   129   ar
   164   127   128   ar
