@<TRIPOS>MOLECULE
tmp/2vzqB00.pdb
 110 105 0 0 0
SMALL
GASTEIGER

@<TRIPOS>ATOM
      1  N          8.1000   13.1570   -8.6540 N.3    18  GLU18      -0.1245
      2  CA         8.7640   12.7540   -9.9130 C.3    18  GLU18       0.1567
      3  C         10.2010   12.3110   -9.5880 C.2    18  GLU18       0.2260
      4  O         10.6540   12.4670   -8.4370 O.2    18  GLU18      -0.2867
      5  CB         8.6520   13.8770  -10.9770 C.3    18  GLU18       0.0388
      6  CG         7.1540   14.0390  -11.3940 C.3    18  GLU18       0.1160
      7  CD         6.8320   15.2110  -12.3020 C.2    18  GLU18       0.3649
      8  OE1        7.7450   15.9540  -12.6780 O.co2  18  GLU18      -0.2457
      9  OE2        5.6330   15.3680  -12.6390 O.co2  18  GLU18      -0.2457
     10  N         12.6940   12.0390  -12.6420 N.3    20  ASN20      -0.1225
     11  CA        13.1910   11.9900  -14.0280 C.3    20  ASN20       0.1785
     12  C         14.3170   12.9800  -14.3020 C.2    20  ASN20       0.2597
     13  O         14.6850   13.1860  -15.4710 O.2    20  ASN20      -0.2718
     14  CB        12.0230   12.2220  -15.0160 C.3    20  ASN20       0.1169
     15  CG        11.4870   13.6260  -14.9430 C.2    20  ASN20       0.2627
     16  OD1       11.3820   14.1940  -13.8580 O.2    20  ASN20      -0.2716
     17  ND2       11.1720   14.2040  -16.0940 N.am   20  ASN20      -0.0877
     18  N         14.7900   13.6490  -13.2300 N.am   21  HIS21      -0.1975
     19  CA        16.0210   14.4130  -13.2290 C.3    21  HIS21       0.1656
     20  C         16.9510   13.7830  -12.2330 C.2    21  HIS21       0.2291
     21  O         16.5420   13.4520  -11.1160 O.2    21  HIS21      -0.2864
     22  CB        15.7610   15.8860  -12.9090 C.3    21  HIS21       0.0771
     23  CG        14.9500   16.5710  -13.9610 C.ar   21  HIS21       0.0820
     24  ND1       15.3430   16.6460  -15.2820 N.ar   21  HIS21      -0.2267
     25  CD2       13.7280   17.1460  -13.8970 C.ar   21  HIS21       0.1154
     26  CE1       14.4070   17.2760  -15.9770 C.ar   21  HIS21       0.1986
     27  NE2       13.4270   17.5940  -15.1590 N.ar   21  HIS21      -0.2212
     28  N         11.5210   13.5820   -5.8200 N.3    29  PHE29      -0.1241
     29  CA        11.4000   15.0420   -5.5560 C.3    29  PHE29       0.1605
     30  C          9.9730   15.4730   -5.8970 C.2    29  PHE29       0.2264
     31  O          9.2020   14.7140   -6.4660 O.2    29  PHE29      -0.2867
     32  CB        12.4560   15.8990   -6.3380 C.3    29  PHE29       0.0534
     33  CG        12.3960   15.7600   -7.8580 C.ar   29  PHE29      -0.0203
     34  CD1       11.5560   16.5810   -8.6320 C.ar   29  PHE29      -0.0042
     35  CD2       13.1760   14.8030   -8.5060 C.ar   29  PHE29      -0.0042
     36  CE1       11.5030   16.4510  -10.0520 C.ar   29  PHE29      -0.0003
     37  CE2       13.1360   14.6590   -9.8850 C.ar   29  PHE29      -0.0003
     38  CZ        12.2960   15.4930  -10.6670 C.ar   29  PHE29      -0.0000
     39  N          7.6610   18.1340   -7.9430 N.3    31  ASN31      -0.1225
     40  CA         7.4630   19.0980   -9.0360 C.3    31  ASN31       0.1785
     41  C          6.1380   19.8550   -8.7480 C.2    31  ASN31       0.2597
     42  O          5.0380   19.2900   -8.9230 O.2    31  ASN31      -0.2718
     43  CB         7.4270   18.3350  -10.3980 C.3    31  ASN31       0.1169
     44  CG         7.2260   19.2540  -11.5420 C.2    31  ASN31       0.2627
     45  OD1        7.1050   20.4530  -11.2920 O.2    31  ASN31      -0.2716
     46  ND2        7.1590   18.7490  -12.8150 N.am   31  ASN31      -0.0877
     47  N          6.2350   21.0770   -8.2040 N.am   32  TYR32      -0.1976
     48  CA         5.0560   21.9170   -7.9600 C.3    32  TYR32       0.1639
     49  C          4.2460   22.0620   -9.2420 C.2    32  TYR32       0.2290
     50  O          4.8210   22.2420  -10.2750 O.2    32  TYR32      -0.2864
     51  CB         5.4790   23.3360   -7.5140 C.3    32  TYR32       0.0560
     52  CG         5.8730   23.4950   -6.0450 C.ar   32  TYR32      -0.0198
     53  CD1        6.9240   22.7380   -5.4710 C.ar   32  TYR32      -0.0009
     54  CD2        5.2280   24.4370   -5.2300 C.ar   32  TYR32      -0.0009
     55  CE1        7.3100   22.9540   -4.1420 C.ar   32  TYR32       0.0417
     56  CE2        5.6040   24.6150   -3.8930 C.ar   32  TYR32       0.0417
     57  CZ         6.6370   23.8780   -3.3660 C.ar   32  TYR32       0.1957
     58  OH         7.0320   24.0480   -2.0620 O.3    32  TYR32      -0.2866
     59  N          2.5740   24.2720  -11.9980 N.3    34  ASN34      -0.1240
     60  CA         2.8690   25.6540  -12.4410 C.3    34  ASN34       0.1653
     61  C          1.6260   26.5030  -12.3070 C.2    34  ASN34       0.2266
     62  O          0.8920   26.7550  -13.2890 O.2    34  ASN34      -0.2867
     63  CB         3.4550   25.7210  -13.8920 C.3    34  ASN34       0.1155
     64  CG         4.8340   25.0950  -14.0000 C.2    34  ASN34       0.2627
     65  OD1        5.1280   24.0940  -13.3380 O.2    34  ASN34      -0.2716
     66  ND2        5.6600   25.6220  -14.8810 N.am   34  ASN34      -0.0877
     67  N         14.8920   27.3160  -15.4020 N.3    62  THR62      -0.1218
     68  CA        14.4380   28.4640  -16.1810 C.3    62  THR62       0.1862
     69  C         15.1690   29.7310  -15.7470 C.2    62  THR62       0.2287
     70  O         15.8210   29.7950  -14.6620 O.2    62  THR62      -0.2866
     71  CB        12.9200   28.6820  -16.0320 C.3    62  THR62       0.1770
     72  OG1       12.6560   29.4000  -14.7920 O.3    62  THR62      -0.2211
     73  CG2       12.2540   27.3350  -16.0040 C.3    62  THR62       0.0375
     74  N         11.2800   31.8070   -9.0450 N.3    66  ARG66      -0.1245
     75  CA        10.0180   31.2010   -8.5850 C.3    66  ARG66       0.1563
     76  C          9.9210   31.3510   -7.0610 C.2    66  ARG66       0.2260
     77  O         10.4680   30.5500   -6.3010 O.2    66  ARG66      -0.2867
     78  CB         9.9120   29.7600   -9.0160 C.3    66  ARG66       0.0307
     79  CG         9.8530   29.6290  -10.5320 C.3    66  ARG66       0.0489
     80  CD         9.6370   28.1860  -10.8800 C.3    66  ARG66       0.2205
     81  NE         9.4540   27.9750  -12.3200 N.pl3  66  ARG66      -0.0865
     82  CZ         9.1770   26.7950  -12.8800 C.cat  66  ARG66       0.5346
     83  NH1        9.0490   25.6760  -12.1520 N.pl3  66  ARG66       0.1354
     84  NH2        9.0480   26.7320  -14.1910 N.pl3  66  ARG66       0.1354
     85  N         17.6530   21.4590  -14.7690 N.3    89  TRP89      -0.1241
     86  CA        16.9100   20.7580  -13.7420 C.3    89  TRP89       0.1605
     87  C         17.6730   19.8180  -12.8270 C.2    89  TRP89       0.2264
     88  O         17.3100   19.7490  -11.6560 O.2    89  TRP89      -0.2867
     89  CB        15.6790   20.0760  -14.3200 C.3    89  TRP89       0.0550
     90  CG        14.7360   21.1080  -14.9290 C.ar   89  TRP89       0.0003
     91  CD1       14.5400   21.3700  -16.2640 C.ar   89  TRP89       0.0946
     92  CD2       13.8720   21.9930  -14.2120 C.ar   89  TRP89       0.0152
     93  NE1       13.6020   22.3670  -16.4150 N.ar   89  TRP89      -0.2442
     94  CE2       13.1700   22.7640  -15.1770 C.ar   89  TRP89       0.0810
     95  CE3       13.6260   22.2200  -12.8400 C.ar   89  TRP89       0.0012
     96  CZ2       12.2270   23.7300  -14.8290 C.ar   89  TRP89       0.0191
     97  CZ3       12.6490   23.2030  -12.4880 C.ar   89  TRP89       0.0001
     98  CH2       11.9970   23.9570  -13.4830 C.ar   89  TRP89       0.0015
     99  N          6.1950   26.5910   -7.9060 N.3   118  GLY118     -0.1225
    100  CA         7.4710   26.5410   -7.1860 C.3   118  GLY118      0.1811
    101  C          8.6410   26.0350   -8.0000 C.2   118  GLY118      0.2280
    102  O          8.4610   25.4780   -9.0770 O.2   118  GLY118     -0.2866
    103  N         11.3540   22.9620   -8.5360 N.3   120  ASN120     -0.1240
    104  CA        11.3500   21.5560   -8.0490 C.3   120  ASN120      0.1653
    105  C         12.0280   21.5180   -6.6710 C.2   120  ASN120      0.2266
    106  O         13.0040   22.2190   -6.4430 O.2   120  ASN120     -0.2867
    107  CB        12.0860   20.6090   -9.0160 C.3   120  ASN120      0.1155
    108  CG        11.3390   20.4070  -10.3040 C.2   120  ASN120      0.2627
    109  OD1       10.1750   20.8210  -10.4280 O.2   120  ASN120     -0.2716
    110  ND2       11.9850   19.7530  -11.2840 N.am  120  ASN120     -0.0877
@<TRIPOS>BOND
     1    93    91   ar
     2    93    94   ar
     3    91    90   ar
     4    68    71    1
     5    68    69    1
     6    68    67    1
     7    17    15   am
     8    71    73    1
     9    71    72    1
    10    26    24   ar
    11    26    27   ar
    12    69    70    2
    13    13    12    2
    14    24    23   ar
    15    94    96   ar
    16    94    92   ar
    17    27    25   ar
    18    14    15    1
    19    14    11    1
    20    15    16    2
    21    90    89    1
    22    90    92   ar
    23    66    64   am
    24    96    98   ar
    25    85    86    1
    26    89    86    1
    27    12    11    1
    28    12    18   am
    29    92    95   ar
    30    84    82    1
    31    11    10    1
    32    64    63    1
    33    64    65    2
    34    23    25   ar
    35    23    22    1
    36    63    60    1
    37    86    87    1
    38    98    97   ar
    39    62    61    2
    40    18    19    1
    41    19    22    1
    42    19    20    1
    43    82    81    2
    44    82    83    1
    45    95    97   ar
    46    87    88    2
    47    46    44   am
    48     8     7   ar
    49     9     7   ar
    50    60    61    1
    51    60    59    1
    52    81    80    1
    53     7     6    1
    54    20    21    2
    55    44    45    2
    56    44    43    1
    57     6     5    1
    58   110   108   am
    59     5     2    1
    60    80    79    1
    61    38    36   ar
    62    38    37   ar
    63    79    78    1
    64   109   108    2
    65    43    40    1
    66   108   107    1
    67    50    49    2
    68    36    34   ar
    69     2     3    1
    70     2     1    1
    71    37    35   ar
    72     3     4    2
    73    49    48    1
    74   102   101    2
    75    74    75    1
    76    40    41    1
    77    40    39    1
    78   107   104    1
    79    78    75    1
    80    42    41    2
    81    41    47   am
    82    34    33   ar
    83    75    76    1
    84   103   104    1
    85    35    33   ar
    86    47    48    1
    87   104   105    1
    88   101   100    1
    89    48    51    1
    90    99   100    1
    91    33    32    1
    92    51    52    1
    93    76    77    2
    94   105   106    2
    95    31    30    2
    96    32    29    1
    97    52    53   ar
    98    52    54   ar
    99    30    29    1
   100    28    29    1
   101    53    55   ar
   102    54    56   ar
   103    55    57   ar
   104    56    57   ar
   105    57    58    1
