@<TRIPOS>MOLECULE
tmp/2vzrB00.pdb
 110 105 0 0 0
SMALL
GASTEIGER

@<TRIPOS>ATOM
      1  N         25.7940   36.1070   50.4360 N.3    18  GLU18      -0.1245
      2  CA        26.1720   35.6560   51.7820 C.3    18  GLU18       0.1567
      3  C         26.5150   34.1800   51.7710 C.2    18  GLU18       0.2260
      4  O         26.3140   33.4900   50.7630 O.2    18  GLU18      -0.2867
      5  CB        25.0870   35.9950   52.8190 C.3    18  GLU18       0.0388
      6  CG        24.9410   37.5060   52.9930 C.3    18  GLU18       0.1160
      7  CD        23.8180   37.9590   53.9160 C.2    18  GLU18       0.3649
      8  OE1       23.1010   37.1200   54.4970 O.co2  18  GLU18      -0.2457
      9  OE2       23.6660   39.1950   54.0470 O.co2  18  GLU18      -0.2457
     10  N         26.7500   32.3660   55.2260 N.3    20  ASN20      -0.1225
     11  CA        26.7740   32.0970   56.6670 C.3    20  ASN20       0.1785
     12  C         25.8360   30.9760   57.1010 C.2    20  ASN20       0.2597
     13  O         25.7520   30.6550   58.2910 O.2    20  ASN20      -0.2718
     14  CB        26.5000   33.3740   57.4710 C.3    20  ASN20       0.1169
     15  CG        25.1030   33.9290   57.2390 C.2    20  ASN20       0.2627
     16  OD1       24.5730   33.8540   56.1320 O.2    20  ASN20      -0.2716
     17  ND2       24.4950   34.4820   58.2930 N.am   20  ASN20      -0.0877
     18  N         25.1330   30.3820   56.1440 N.am   21  HIS21      -0.1975
     19  CA        24.3610   29.1760   56.4030 C.3    21  HIS21       0.1656
     20  C         24.9430   28.0530   55.5660 C.2    21  HIS21       0.2291
     21  O         25.2550   28.2620   54.3980 O.2    21  HIS21      -0.2864
     22  CB        22.8810   29.3970   56.0740 C.3    21  HIS21       0.0771
     23  CG        22.2190   30.3990   56.9650 C.ar   21  HIS21       0.0820
     24  ND1       22.0580   30.1930   58.3180 N.ar   21  HIS21      -0.2267
     25  CD2       21.7080   31.6260   56.7050 C.ar   21  HIS21       0.1154
     26  CE1       21.4610   31.2460   58.8500 C.ar   21  HIS21       0.1986
     27  NE2       21.2370   32.1280   57.8930 N.ar   21  HIS21      -0.2212
     28  N         25.2640   32.1780   48.3940 N.3    29  PHE29      -0.1241
     29  CA        23.8580   32.2710   47.9910 C.3    29  PHE29       0.1605
     30  C         23.4530   33.7310   48.0550 C.2    29  PHE29       0.2264
     31  O         24.2080   34.5790   48.5560 O.2    29  PHE29      -0.2867
     32  CB        22.9400   31.4140   48.9050 C.3    29  PHE29       0.0534
     33  CG        23.0630   31.7380   50.3760 C.ar   29  PHE29      -0.0203
     34  CD1       22.2810   32.7450   50.9590 C.ar   29  PHE29      -0.0042
     35  CD2       23.9690   31.0410   51.1780 C.ar   29  PHE29      -0.0042
     36  CE1       22.3980   33.0510   52.3210 C.ar   29  PHE29      -0.0003
     37  CE2       24.0960   31.3360   52.5440 C.ar   29  PHE29      -0.0003
     38  CZ        23.3260   32.3510   53.1160 C.ar   29  PHE29      -0.0000
     39  N         20.9160   36.4400   49.7270 N.3    31  ASN31      -0.1225
     40  CA        19.9570   36.8270   50.7290 C.3    31  ASN31       0.1785
     41  C         19.1800   38.0460   50.2000 C.2    31  ASN31       0.2597
     42  O         19.7420   39.1200   50.0470 O.2    31  ASN31      -0.2718
     43  CB        20.6840   37.1280   52.0540 C.3    31  ASN31       0.1169
     44  CG        19.7510   37.6590   53.1270 C.2    31  ASN31       0.2627
     45  OD1       18.5710   37.8950   52.8550 O.2    31  ASN31      -0.2716
     46  ND2       20.2700   37.8560   54.3500 N.am   31  ASN31      -0.0877
     47  N         17.8980   37.8720   49.8820 N.am   32  TYR32      -0.1976
     48  CA        17.0620   38.9980   49.4560 C.3    32  TYR32       0.1639
     49  C         16.8390   39.9710   50.6230 C.2    32  TYR32       0.2290
     50  O         16.5080   39.5400   51.7310 O.2    32  TYR32      -0.2864
     51  CB        15.6700   38.5000   49.0320 C.3    32  TYR32       0.0560
     52  CG        15.5340   37.8730   47.6630 C.ar   32  TYR32      -0.0198
     53  CD1       16.2560   36.7400   47.3140 C.ar   32  TYR32      -0.0009
     54  CD2       14.6210   38.3840   46.7320 C.ar   32  TYR32      -0.0009
     55  CE1       16.0940   36.1410   46.0670 C.ar   32  TYR32       0.0417
     56  CE2       14.4580   37.7980   45.4840 C.ar   32  TYR32       0.0417
     57  CZ        15.2080   36.6830   45.1580 C.ar   32  TYR32       0.1957
     58  OH        15.0570   36.0870   43.9320 O.3    32  TYR32      -0.2866
     59  N         14.6430   42.1770   53.0050 N.3    34  ASN34      -0.1240
     60  CA        13.2620   41.9560   53.4360 C.3    34  ASN34       0.1653
     61  C         12.3990   43.1540   53.0680 C.2    34  ASN34       0.2266
     62  O         12.1020   44.0200   53.8980 O.2    34  ASN34      -0.2867
     63  CB        13.1590   41.5740   54.9320 C.3    34  ASN34       0.1155
     64  CG        13.7080   40.1860   55.2160 C.2    34  ASN34       0.2627
     65  OD1       13.1120   39.3890   55.9560 O.2    34  ASN34      -0.2716
     66  ND2       14.8450   39.8800   54.6090 N.am   34  ASN34      -0.0877
     67  N         11.4960   30.2880   58.1810 N.3    62  THR62      -0.1218
     68  CA        10.3450   30.9530   58.8170 C.3    62  THR62       0.1862
     69  C          9.0730   30.1660   58.5290 C.2    62  THR62       0.2287
     70  O          9.0750   29.2780   57.6860 O.2    62  THR62      -0.2866
     71  CB        10.1690   32.4430   58.3780 C.3    62  THR62       0.1770
     72  OG1        9.5300   32.5110   57.0880 O.3    62  THR62      -0.2211
     73  CG2       11.5030   33.1750   58.3410 C.3    62  THR62       0.0375
     74  N          7.1750   32.7840   51.2210 N.3    66  ARG66      -0.1245
     75  CA         7.6440   34.0030   50.5650 C.3    66  ARG66       0.1563
     76  C          7.4940   33.9070   49.0370 C.2    66  ARG66       0.2260
     77  O          8.2510   33.1930   48.3720 O.2    66  ARG66      -0.2867
     78  CB         9.0810   34.3360   50.9800 C.3    66  ARG66       0.0307
     79  CG         9.2210   34.6990   52.4660 C.3    66  ARG66       0.0489
     80  CD        10.6600   34.9910   52.8290 C.3    66  ARG66       0.2205
     81  NE        10.8140   35.3450   54.2440 N.pl3  66  ARG66      -0.0865
     82  CZ        11.9670   35.6790   54.8100 C.cat  66  ARG66       0.5346
     83  NH1       13.0860   35.7050   54.0900 N.pl3  66  ARG66       0.1354
     84  NH2       12.0060   35.9890   56.0990 N.pl3  66  ARG66       0.1354
     85  N         17.3630   27.6850   58.0840 N.3    89  TRP89      -0.1241
     86  CA        18.0680   28.3200   56.9630 C.3    89  TRP89       0.1605
     87  C         19.1110   27.4430   56.2440 C.2    89  TRP89       0.2264
     88  O         19.2690   27.5750   55.0320 O.2    89  TRP89      -0.2867
     89  CB        18.6710   29.6530   57.3770 C.3    89  TRP89       0.0550
     90  CG        17.6320   30.6820   57.7110 C.ar   89  TRP89       0.0003
     91  CD1       17.3030   31.1260   58.9530 C.ar   89  TRP89       0.0946
     92  CD2       16.7760   31.3770   56.7940 C.ar   89  TRP89       0.0152
     93  NE1       16.2870   32.0540   58.8780 N.ar   89  TRP89      -0.2442
     94  CE2       15.9520   32.2350   57.5620 C.ar   89  TRP89       0.0810
     95  CE3       16.6220   31.3610   55.4000 C.ar   89  TRP89       0.0012
     96  CZ2       14.9850   33.0680   56.9800 C.ar   89  TRP89       0.0191
     97  CZ3       15.6700   32.2120   54.8180 C.ar   89  TRP89       0.0001
     98  CH2       14.8640   33.0400   55.6090 C.ar   89  TRP89       0.0015
     99  N         12.3660   37.7140   49.4930 N.3   118  GLY118     -0.1225
    100  CA        12.3920   36.3590   48.9640 C.3   118  GLY118      0.1811
    101  C         12.9580   35.3650   49.9500 C.2   118  GLY118      0.2280
    102  O         13.4520   35.7510   51.0180 O.2   118  GLY118     -0.2866
    103  N         16.0420   32.7800   50.8550 N.3   120  ASN120     -0.1240
    104  CA        17.4440   32.7410   50.4640 C.3   120  ASN120      0.1653
    105  C         17.5110   31.8460   49.2190 C.2   120  ASN120      0.2266
    106  O         16.9030   30.7820   49.1920 O.2   120  ASN120     -0.2867
    107  CB        18.3320   32.1790   51.5850 C.3   120  ASN120      0.1155
    108  CG        18.5940   33.1800   52.7200 C.2   120  ASN120      0.2627
    109  OD1       18.1850   34.3560   52.6740 O.2   120  ASN120     -0.2716
    110  ND2       19.2930   32.7070   53.7580 N.am  120  ASN120     -0.0877
@<TRIPOS>BOND
     1    58    57    1
     2    57    56   ar
     3    57    55   ar
     4    56    54   ar
     5    55    53   ar
     6    54    52   ar
     7    53    52   ar
     8    52    51    1
     9    29    30    1
    10    29    28    1
    11    29    32    1
    12    30    31    2
    13    77    76    2
    14    32    33    1
    15   100    99    1
    16   100   101    1
    17    51    48    1
    18    76    75    1
    19   106   105    2
    20   105   104    1
    21    48    47    1
    22    48    49    1
    23    39    40    1
    24    47    41   am
    25   101   102    2
    26    42    41    2
    27    41    40    1
    28    33    34   ar
    29    33    35   ar
    30     1     2    1
    31   104   103    1
    32   104   107    1
    33    75    78    1
    34    75    74    1
    35    49    50    2
    36    40    43    1
    37     4     3    2
    38    34    36   ar
    39    78    79    1
    40    35    37   ar
    41   107   108    1
    42     3     2    1
    43     2     5    1
    44    43    44    1
    45    36    38   ar
    46    79    80    1
    47    37    38   ar
    48   109   108    2
    49   108   110   am
    50     5     6    1
    51    80    81    1
    52    45    44    2
    53     6     7    1
    54    59    60    1
    55    61    60    1
    56    61    62    2
    57    44    46   am
    58    60    63    1
    59     7     9   ar
    60     7     8   ar
    61    83    82    1
    62    81    82    2
    63    21    20    2
    64    66    64   am
    65    82    84    1
    66    97    95   ar
    67    97    98   ar
    68    63    64    1
    69    88    87    2
    70    64    65    2
    71    10    11    1
    72    95    92   ar
    73    20    19    1
    74    98    96   ar
    75    22    19    1
    76    22    23    1
    77    16    15    2
    78    18    19    1
    79    18    12   am
    80    87    86    1
    81    11    12    1
    82    11    14    1
    83    25    23   ar
    84    25    27   ar
    85    92    94   ar
    86    92    90   ar
    87    86    89    1
    88    86    85    1
    89    23    24   ar
    90    96    94   ar
    91    72    71    1
    92    12    13    2
    93    15    14    1
    94    15    17   am
    95    89    90    1
    96    94    93   ar
    97    70    69    2
    98    90    91   ar
    99    27    26   ar
   100    67    68    1
   101    24    26   ar
   102    73    71    1
   103    71    68    1
   104    69    68    1
   105    93    91   ar
