@<TRIPOS>MOLECULE
tmp/2vzsA00.pdb
 147 147 0 0 0
SMALL
GASTEIGER

@<TRIPOS>ATOM
      1  N         50.9590   46.3230   78.5090 N.3   161  ILE161     -0.1231
      2  CA        51.5550   45.9230   77.1990 C.3   161  ILE161      0.1692
      3  C         51.6830   47.1770   76.3370 C.2   161  ILE161      0.2592
      4  O         52.3420   48.1260   76.7440 O.2   161  ILE161     -0.2718
      5  CB        50.7890   44.6970   76.5520 C.3   161  ILE161      0.0266
      6  CG1       50.4580   43.6600   77.6680 C.3   161  ILE161      0.0019
      7  CG2       51.6180   44.0750   75.3540 C.3   161  ILE161      0.0020
      8  CD1       49.4900   42.4760   77.3290 C.3   161  ILE161      0.0001
      9  N         51.0130   47.2390   75.1970 N.am  162  ASP162     -0.1960
     10  CA        51.0380   48.4610   74.3530 C.3   162  ASP162      0.1840
     11  C         49.5960   48.9060   74.0270 C.2   162  ASP162      0.2622
     12  O         49.3390   49.6360   73.0530 O.2   162  ASP162     -0.2715
     13  CB        51.8100   48.1640   73.0500 C.3   162  ASP162      0.1450
     14  CG        51.2200   46.9690   72.2900 C.2   162  ASP162      0.3671
     15  OD1       50.2150   46.3680   72.7550 O.co2 162  ASP162     -0.2456
     16  OD2       51.7270   46.6330   71.2150 O.co2 162  ASP162     -0.2456
     17  N         48.6500   48.5000   74.8720 N.am  163  TRP163     -0.1974
     18  CA        47.2450   48.8000   74.5880 C.3   163  TRP163      0.1640
     19  C         46.9010   50.2960   74.6970 C.2   163  TRP163      0.2290
     20  O         46.0520   50.7920   73.9610 O.2   163  TRP163     -0.2864
     21  CB        46.3330   47.9900   75.5000 C.3   163  TRP163      0.0576
     22  CG        46.5110   46.4850   75.4150 C.ar  163  TRP163      0.0006
     23  CD1       47.2820   45.7660   74.5080 C.ar  163  TRP163      0.0946
     24  CD2       45.8710   45.5020   76.2580 C.ar  163  TRP163      0.0152
     25  NE1       47.1720   44.4130   74.7730 N.ar  163  TRP163     -0.2442
     26  CE2       46.3150   44.2220   75.8280 C.ar  163  TRP163      0.0810
     27  CE3       44.9990   45.5840   77.3570 C.ar  163  TRP163      0.0012
     28  CZ2       45.8980   43.0310   76.4480 C.ar  163  TRP163      0.0191
     29  CZ3       44.5720   44.3970   77.9680 C.ar  163  TRP163      0.0001
     30  CH2       45.0380   43.1410   77.5290 C.ar  163  TRP163      0.0015
     31  N         43.1990   38.6670   78.0590 N.3   353  GLU353     -0.1245
     32  CA        44.6480   38.4870   78.0970 C.3   353  GLU353      0.1567
     33  C         45.1110   39.1440   79.3960 C.2   353  GLU353      0.2260
     34  O         45.3440   40.3730   79.4080 O.2   353  GLU353     -0.2867
     35  CB        45.3710   39.0860   76.8660 C.3   353  GLU353      0.0388
     36  CG        46.9090   38.7580   76.9880 C.3   353  GLU353      0.1160
     37  CD        47.7850   39.2820   75.8560 C.2   353  GLU353      0.3649
     38  OE1       47.3230   40.1600   75.0880 O.co2 353  GLU353     -0.2457
     39  OE2       48.9700   38.8540   75.7680 O.co2 353  GLU353     -0.2457
     40  N         51.0010   38.3750   78.0110 N.3   378  CYS378     -0.1221
     41  CA        52.3590   38.3500   77.4550 C.3   378  CYS378      0.1808
     42  C         53.1530   39.5210   77.9920 C.2   378  CYS378      0.2601
     43  O         52.6130   40.3980   78.7130 O.2   378  CYS378     -0.2717
     44  CB        52.3260   38.5030   75.9340 C.3   378  CYS378      0.0970
     45  SG        52.0010   40.2070   75.3370 S.3   378  CYS378     -0.0800
     46  N         54.4180   39.5640   77.5540 N.am  379  CYS379     -0.1970
     47  CA        55.1600   40.8340   77.4740 C.3   379  CYS379      0.1712
     48  C         55.4830   41.5270   78.8110 C.2   379  CYS379      0.2296
     49  O         55.6950   42.7470   78.8510 O.2   379  CYS379     -0.2864
     50  CB        54.4170   41.8040   76.5030 C.3   379  CYS379      0.0983
     51  SG        53.8760   40.9840   74.9520 S.3   379  CYS379     -0.0798
     52  N         50.7130   33.1810   76.6210 N.3   427  SER427     -0.1202
     53  CA        50.1680   34.0170   75.5850 C.3   427  SER427      0.2020
     54  C         50.8320   34.1080   74.1620 C.2   427  SER427      0.2618
     55  O         50.5650   33.2820   73.3040 O.2   427  SER427     -0.2717
     56  CB        49.7730   35.4070   76.1630 C.3   427  SER427      0.2103
     57  OG        49.1680   36.2680   75.1750 O.3   427  SER427     -0.2182
     58  N         51.7140   35.0690   73.8730 N.am  428  ASP428     -0.1973
     59  CA        53.0660   34.9380   73.2690 C.3   428  ASP428      0.1709
     60  C         53.9010   33.6810   73.3930 C.2   428  ASP428      0.2293
     61  O         53.9820   32.9230   72.4470 O.2   428  ASP428     -0.2864
     62  CB        53.8840   36.2260   73.3650 C.3   428  ASP428      0.1436
     63  CG        53.1040   37.4590   72.9040 C.2   428  ASP428      0.3671
     64  OD1       51.8370   37.4620   72.8720 O.co2 428  ASP428     -0.2456
     65  OD2       53.7760   38.4690   72.6250 O.co2 428  ASP428     -0.2456
     66  N         49.3780   33.7060   66.0640 N.3   471  MET471     -0.1245
     67  CA        49.5410   35.1050   66.3710 C.3   471  MET471      0.1570
     68  C         50.5150   35.6730   65.3480 C.2   471  MET471      0.2261
     69  O         51.6890   35.8670   65.6500 O.2   471  MET471     -0.2867
     70  CB        50.0770   35.2770   67.8070 C.3   471  MET471      0.0387
     71  CG        50.1940   36.7570   68.2690 C.3   471  MET471      0.0595
     72  SD        50.9530   36.8580   69.9080 S.3   471  MET471     -0.1393
     73  CE        49.7240   35.8850   70.8150 C.3   471  MET471      0.0692
     74  N         48.0640   44.0880   63.2240 N.3   475  TYR475     -0.1241
     75  CA        47.5310   44.9540   64.2980 C.3   475  TYR475      0.1605
     76  C         47.4440   46.3630   63.7430 C.2   475  TYR475      0.2264
     77  O         47.2490   47.3180   64.4780 O.2   475  TYR475     -0.2867
     78  CB        48.4200   44.9750   65.5380 C.3   475  TYR475      0.0534
     79  CG        48.6360   43.6150   66.1660 C.ar  475  TYR475     -0.0201
     80  CD1       47.7100   43.0850   67.1280 C.ar  475  TYR475     -0.0009
     81  CD2       49.7480   42.8380   65.8080 C.ar  475  TYR475     -0.0009
     82  CE1       47.9180   41.7920   67.6950 C.ar  475  TYR475      0.0417
     83  CE2       49.9590   41.5670   66.3650 C.ar  475  TYR475      0.0417
     84  CZ        49.0480   41.0530   67.3130 C.ar  475  TYR475      0.1957
     85  OH        49.2760   39.7810   67.8560 O.3   475  TYR475     -0.2866
     86  N         44.2270   36.9970   68.3220 N.3   500  GLU500     -0.1245
     87  CA        44.2830   38.4660   68.4760 C.3   500  GLU500      0.1567
     88  C         44.7590   39.1610   67.1990 C.2   500  GLU500      0.2260
     89  O         45.9640   39.2140   66.9160 O.2   500  GLU500     -0.2867
     90  CB        45.2020   38.8510   69.6260 C.3   500  GLU500      0.0388
     91  CG        46.4590   38.0550   69.6830 C.3   500  GLU500      0.1160
     92  CD        47.4340   38.6490   70.6590 C.2   500  GLU500      0.3649
     93  OE1       47.4770   38.1570   71.8150 O.co2 500  GLU500     -0.2457
     94  OE2       48.1790   39.5870   70.2550 O.co2 500  GLU500     -0.2457
     95  N         53.0440   51.7200   67.3290 N.3   542  PHE542     -0.1241
     96  CA        51.6330   52.1170   67.2160 C.3   542  PHE542      0.1605
     97  C         51.4100   53.4850   67.8170 C.2   542  PHE542      0.2264
     98  O         50.3500   53.7610   68.3840 O.2   542  PHE542     -0.2867
     99  CB        50.7140   51.0830   67.8720 C.3   542  PHE542      0.0534
    100  CG        50.9580   49.6640   67.3890 C.ar  542  PHE542     -0.0203
    101  CD1       50.7590   49.3210   66.0410 C.ar  542  PHE542     -0.0042
    102  CD2       51.3960   48.7020   68.2630 C.ar  542  PHE542     -0.0042
    103  CE1       51.0010   48.0210   65.5830 C.ar  542  PHE542     -0.0003
    104  CE2       51.6150   47.3880   67.8250 C.ar  542  PHE542     -0.0003
    105  CZ        51.4220   47.0610   66.4480 C.ar  542  PHE542     -0.0000
    106  N         41.1650   42.3640   67.8400 N.3   601  TRP601     -0.1241
    107  CA        42.0170   43.1640   68.7410 C.3   601  TRP601      0.1605
    108  C         41.6290   44.6630   68.6190 C.2   601  TRP601      0.2264
    109  O         42.0600   45.3220   67.6810 O.2   601  TRP601     -0.2867
    110  CB        43.5150   42.9220   68.3890 C.3   601  TRP601      0.0550
    111  CG        44.4150   42.9490   69.6240 C.ar  601  TRP601      0.0003
    112  CD1       45.4590   43.7970   69.8790 C.ar  601  TRP601      0.0946
    113  CD2       44.2870   42.0950   70.7640 C.ar  601  TRP601      0.0152
    114  NE1       45.9790   43.5270   71.1230 N.ar  601  TRP601     -0.2442
    115  CE2       45.2680   42.4880   71.6900 C.ar  601  TRP601      0.0810
    116  CE3       43.3860   41.0500   71.1050 C.ar  601  TRP601      0.0012
    117  CZ2       45.4300   41.8440   72.9420 C.ar  601  TRP601      0.0191
    118  CZ3       43.5300   40.4110   72.3580 C.ar  601  TRP601      0.0001
    119  CH2       44.5630   40.8230   73.2600 C.ar  601  TRP601      0.0015
    120  N         42.1170   49.7640   68.1700 N.3   612  TRP612     -0.1241
    121  CA        41.8990   48.4460   68.7840 C.3   612  TRP612      0.1605
    122  C         40.6500   48.4700   69.6580 C.2   612  TRP612      0.2264
    123  O         40.7120   48.1660   70.8450 O.2   612  TRP612     -0.2867
    124  CB        43.1170   48.0050   69.6250 C.3   612  TRP612      0.0550
    125  CG        44.4200   47.8430   68.8390 C.ar  612  TRP612      0.0003
    126  CD1       44.5760   47.8440   67.4600 C.ar  612  TRP612      0.0946
    127  CD2       45.7180   47.6070   69.3920 C.ar  612  TRP612      0.0152
    128  NE1       45.9160   47.6820   67.1370 N.ar  612  TRP612     -0.2442
    129  CE2       46.6340   47.5260   68.2960 C.ar  612  TRP612      0.0810
    130  CE3       46.2120   47.4730   70.7070 C.ar  612  TRP612      0.0012
    131  CZ2       48.0020   47.3130   68.4780 C.ar  612  TRP612      0.0191
    132  CZ3       47.6130   47.2620   70.8930 C.ar  612  TRP612      0.0001
    133  CH2       48.4700   47.1690   69.7880 C.ar  612  TRP612      0.0015
    134  N         55.8150   42.0850   61.1960 N.3   740  TRP740     -0.1241
    135  CA        55.0560   41.2980   62.1580 C.3   740  TRP740      0.1605
    136  C         53.6360   41.8240   62.3960 C.2   740  TRP740      0.2264
    137  O         52.7480   41.0700   62.7920 O.2   740  TRP740     -0.2867
    138  CB        55.8250   41.1940   63.4750 C.3   740  TRP740      0.0550
    139  CG        55.9580   42.4970   64.2440 C.ar  740  TRP740      0.0003
    140  CD1       56.9560   43.4470   64.1200 C.ar  740  TRP740      0.0946
    141  CD2       55.0830   42.9730   65.2780 C.ar  740  TRP740      0.0152
    142  NE1       56.7400   44.4710   65.0220 N.ar  740  TRP740     -0.2442
    143  CE2       55.6070   44.1960   65.7480 C.ar  740  TRP740      0.0810
    144  CE3       53.9180   42.4630   65.8740 C.ar  740  TRP740      0.0012
    145  CZ2       54.9860   44.9390   66.7830 C.ar  740  TRP740      0.0191
    146  CZ3       53.3190   43.1840   66.9100 C.ar  740  TRP740      0.0001
    147  CH2       53.8560   44.4050   67.3480 C.ar  740  TRP740      0.0015
@<TRIPOS>BOND
     1   134   135    1
     2   135   136    1
     3   135   138    1
     4   136   137    2
     5    74    75    1
     6   138   139    1
     7    76    75    1
     8    76    77    2
     9   140   139   ar
    10   140   142   ar
    11   139   141   ar
    12    75    78    1
    13   142   143   ar
    14   141   143   ar
    15   141   144   ar
    16    68    69    2
    17    68    67    1
    18    78    79    1
    19   103   101   ar
    20   103   105   ar
    21   143   145   ar
    22    81    79   ar
    23    81    83   ar
    24   144   146   ar
    25   101   100   ar
    26    66    67    1
    27    79    80   ar
    28    83    84   ar
    29    67    70    1
    30   105   104   ar
    31   145   147   ar
    32   146   147   ar
    33    89    88    2
    34    80    82   ar
    35   128   126   ar
    36   128   129   ar
    37    88    87    1
    38    96    95    1
    39    96    97    1
    40    96    99    1
    41    84    82   ar
    42    84    85    1
    43   100    99    1
    44   100   102   ar
    45   126   125   ar
    46   109   108    2
    47    70    71    1
    48    97    98    2
    49   104   102   ar
    50   106   107    1
    51   120   121    1
    52    71    72    1
    53   129   131   ar
    54   129   127   ar
    55    86    87    1
    56   110   107    1
    57   110   111    1
    58    87    90    1
    59   131   133   ar
    60   108   107    1
    61   121   124    1
    62   121   122    1
    63   125   127   ar
    64   125   124    1
    65   127   130   ar
    66   111   112   ar
    67   111   113   ar
    68    90    91    1
    69   122   123    2
    70    91    92    1
    71   133   132   ar
    72   112   114   ar
    73    72    73    1
    74    94    92   ar
    75    92    93   ar
    76   130   132   ar
    77   113   116   ar
    78   113   115   ar
    79   116   118   ar
    80   114   115   ar
    81    16    14   ar
    82   115   117   ar
    83    14    15   ar
    84    14    13    1
    85   118   119   ar
    86    61    60    2
    87    65    63   ar
    88    64    63   ar
    89    63    62    1
    90   117   119   ar
    91    13    10    1
    92    12    11    2
    93    59    62    1
    94    59    60    1
    95    59    58    1
    96    55    54    2
    97    58    54   am
    98    20    19    2
    99    11    10    1
   100    11    17   am
   101    54    53    1
   102    10     9    1
   103    23    25   ar
   104    23    22   ar
   105    18    19    1
   106    18    17    1
   107    18    21    1
   108    25    26   ar
   109    51    45    1
   110    51    50    1
   111    38    37   ar
   112    57    56    1
   113     9     3   am
   114    45    44    1
   115     7     5    1
   116    22    21    1
   117    22    24   ar
   118    53    56    1
   119    53    52    1
   120    39    37   ar
   121    26    24   ar
   122    26    28   ar
   123    37    36    1
   124    44    41    1
   125    24    27   ar
   126     3     4    2
   127     3     2    1
   128    28    30   ar
   129    50    47    1
   130     5     2    1
   131     5     6    1
   132    35    36    1
   133    35    32    1
   134     2     1    1
   135     8     6    1
   136    27    29   ar
   137    41    42    1
   138    41    40    1
   139    47    46    1
   140    47    48    1
   141    30    29   ar
   142    46    42   am
   143    42    43    2
   144    31    32    1
   145    32    33    1
   146    48    49    2
   147    33    34    2
