@<TRIPOS>MOLECULE
tmp/2vztA00.pdb
 179 176 0 0 0
SMALL
GASTEIGER

@<TRIPOS>ATOM
      1  N         50.8530   46.4490   78.4830 N.3   154  ILE154     -0.1231
      2  CA        51.4910   46.0300   77.2350 C.3   154  ILE154      0.1692
      3  C         51.6460   47.2450   76.3230 C.2   154  ILE154      0.2592
      4  O         52.3860   48.1780   76.6580 O.2   154  ILE154     -0.2718
      5  CB        50.7500   44.7760   76.6000 C.3   154  ILE154      0.0266
      6  CG1       50.5810   43.6860   77.6890 C.3   154  ILE154      0.0019
      7  CG2       51.4990   44.2450   75.3200 C.3   154  ILE154      0.0020
      8  CD1       49.5090   42.5980   77.4410 C.3   154  ILE154      0.0001
      9  N         50.9380   47.2690   75.2030 N.am  155  ASP155     -0.1960
     10  CA        50.9610   48.4310   74.3180 C.3   155  ASP155      0.1840
     11  C         49.5320   48.9240   74.0190 C.2   155  ASP155      0.2622
     12  O         49.2970   49.6450   73.0400 O.2   155  ASP155     -0.2715
     13  CB        51.7250   48.0940   73.0290 C.3   155  ASP155      0.1450
     14  CG        51.1160   46.9200   72.2770 C.2   155  ASP155      0.3671
     15  OD1       50.0820   46.3880   72.7630 O.co2 155  ASP155     -0.2456
     16  OD2       51.6830   46.5170   71.2230 O.co2 155  ASP155     -0.2456
     17  N         48.5840   48.5400   74.8710 N.am  156  TRP156     -0.1974
     18  CA        47.1770   48.8350   74.6240 C.3   156  TRP156      0.1640
     19  C         46.8600   50.3100   74.7480 C.2   156  TRP156      0.2290
     20  O         45.9700   50.8230   74.0540 O.2   156  TRP156     -0.2864
     21  CB        46.2670   48.0450   75.5730 C.3   156  TRP156      0.0576
     22  CG        46.4220   46.5400   75.4810 C.ar  156  TRP156      0.0006
     23  CD1       47.1890   45.8180   74.5760 C.ar  156  TRP156      0.0946
     24  CD2       45.7750   45.5690   76.3140 C.ar  156  TRP156      0.0152
     25  NE1       47.0730   44.4650   74.8330 N.ar  156  TRP156     -0.2442
     26  CE2       46.2020   44.2800   75.8730 C.ar  156  TRP156      0.0810
     27  CE3       44.8800   45.6590   77.3930 C.ar  156  TRP156      0.0012
     28  CZ2       45.7730   43.0990   76.4860 C.ar  156  TRP156      0.0191
     29  CZ3       44.4400   44.4750   77.9900 C.ar  156  TRP156      0.0001
     30  CH2       44.8770   43.2180   77.5260 C.ar  156  TRP156      0.0015
     31  N         37.8530   37.4080   75.0700 N.3   344  ARG344     -0.1245
     32  CA        39.1210   36.9620   75.5950 C.3   344  ARG344      0.1563
     33  C         39.5650   37.9610   76.6370 C.2   344  ARG344      0.2260
     34  O         39.4180   39.1730   76.4410 O.2   344  ARG344     -0.2867
     35  CB        40.1660   36.8410   74.4730 C.3   344  ARG344      0.0307
     36  CG        41.3810   36.0580   74.8880 C.3   344  ARG344      0.0489
     37  CD        42.4180   35.9200   73.8030 C.3   344  ARG344      0.2205
     38  NE        43.7310   35.7610   74.4350 N.pl3 344  ARG344     -0.0865
     39  CZ        44.8760   36.2490   73.9520 C.cat 344  ARG344      0.5346
     40  NH1       44.8900   36.9130   72.7890 N.pl3 344  ARG344      0.1354
     41  NH2       46.0140   36.0630   74.6410 N.pl3 344  ARG344      0.1354
     42  N         43.0640   38.7030   78.0490 N.3   346  GLU346     -0.1245
     43  CA        44.5090   38.5770   78.1990 C.3   346  GLU346      0.1567
     44  C         44.9850   39.2710   79.4910 C.2   346  GLU346      0.2260
     45  O         45.2080   40.5000   79.5290 O.2   346  GLU346     -0.2867
     46  CB        45.2750   39.0480   76.9550 C.3   346  GLU346      0.0388
     47  CG        46.7900   38.8010   77.1290 C.3   346  GLU346      0.1160
     48  CD        47.6590   39.3680   76.0240 C.2   346  GLU346      0.3649
     49  OE1       47.1820   40.2620   75.3130 O.co2 346  GLU346     -0.2457
     50  OE2       48.8340   38.9400   75.8870 O.co2 346  GLU346     -0.2457
     51  N         50.9850   38.5160   78.0370 N.3   371  CYS371     -0.1221
     52  CA        52.3380   38.4910   77.4740 C.3   371  CYS371      0.1808
     53  C         53.1430   39.6690   77.9830 C.2   371  CYS371      0.2601
     54  O         52.6320   40.5300   78.7280 O.2   371  CYS371     -0.2717
     55  CB        52.3200   38.5810   75.9260 C.3   371  CYS371      0.0970
     56  SG        52.0890   40.2770   75.2370 S.3   371  CYS371     -0.0800
     57  N         54.4110   39.6910   77.5570 N.am  372  CYS372     -0.1970
     58  CA        55.1740   40.9440   77.4730 C.3   372  CYS372      0.1712
     59  C         55.4710   41.5990   78.8180 C.2   372  CYS372      0.2296
     60  O         55.7310   42.7980   78.8840 O.2   372  CYS372     -0.2864
     61  CB        54.4240   41.9100   76.5230 C.3   372  CYS372      0.0983
     62  SG        54.0050   41.0690   74.9480 S.3   372  CYS372     -0.0798
     63  N         50.6640   33.2360   76.5550 N.3   420  SER420     -0.1202
     64  CA        50.0950   34.1350   75.5820 C.3   420  SER420      0.2023
     65  C         50.5750   34.1890   74.1070 C.2   420  SER420      0.2655
     66  O         50.0850   33.4280   73.2930 O.2   420  SER420     -0.2713
     67  CB        49.8250   35.5430   76.1690 C.3   420  SER420      0.2104
     68  OG        49.1390   36.3800   75.2470 O.3   420  SER420     -0.2182
     69  N         51.5140   35.0350   73.7040 N.am  421  ASP421     -0.1784
     70  CA        52.9230   34.7990   73.3400 C.2   421  ASP421      0.1045
     71  C         53.7620   33.5320   73.5790 C.2   421  ASP421      0.2468
     72  O         53.5640   32.5250   72.8750 O.2   421  ASP421     -0.2820
     73  CB        53.7160   36.1070   73.2340 C.3   421  ASP421      0.1605
     74  CG        54.6300   36.1360   71.9890 C.2   421  ASP421      0.3707
     75  OD1       54.4450   35.2860   71.0790 O.co2 421  ASP421     -0.2452
     76  OD2       55.5350   37.0110   71.9190 O.co2 421  ASP421     -0.2452
     77  N         49.6380   32.3550   70.5420 N.3   450  SER450     -0.1217
     78  CA        50.4570   32.2470   69.3330 C.3   450  SER450      0.1889
     79  C         50.5070   30.7770   68.8930 C.2   450  SER450      0.2288
     80  O         49.8780   29.9120   69.5090 O.2   450  SER450     -0.2866
     81  CB        51.8750   32.7500   69.6240 C.3   450  SER450      0.2089
     82  OG        52.5000   31.8390   70.5060 O.3   450  SER450     -0.2183
     83  N         53.0970   28.9770   69.3140 N.3   452  ARG452     -0.1245
     84  CA        54.1280   28.3220   70.1290 C.3   452  ARG452      0.1563
     85  C         53.5990   27.2040   71.0390 C.2   452  ARG452      0.2260
     86  O         52.6630   27.4350   71.7990 O.2   452  ARG452     -0.2867
     87  CB        54.8940   29.3480   70.9590 C.3   452  ARG452      0.0307
     88  CG        55.5350   30.4610   70.1290 C.3   452  ARG452      0.0489
     89  CD        56.2310   31.4810   71.0270 C.3   452  ARG452      0.2205
     90  NE        57.4660   31.9700   70.4160 N.pl3 452  ARG452     -0.0865
     91  CZ        57.5750   33.1330   69.8020 C.cat 452  ARG452      0.5346
     92  NH1       56.5130   33.9410   69.7340 N.pl3 452  ARG452      0.1354
     93  NH2       58.7380   33.4910   69.2590 N.pl3 452  ARG452      0.1354
     94  N         49.1730   34.0720   66.3130 N.3   464  MET464     -0.1230
     95  CA        49.2620   35.5310   66.3840 C.3   464  MET464      0.1702
     96  C         50.3070   35.9960   65.3680 C.2   464  MET464      0.2592
     97  O         51.4440   36.2830   65.7280 O.2   464  MET464     -0.2718
     98  CB        49.6250   36.0200   67.7980 C.3   464  MET464      0.0401
     99  CG        48.4310   36.0370   68.7740 C.3   464  MET464      0.0596
    100  SD        48.6600   36.8610   70.3380 S.3   464  MET464     -0.1393
    101  CE        50.0950   36.0400   71.0240 C.3   464  MET464      0.0692
    102  N         49.9100   36.0570   64.0960 N.am  465  ASN465     -0.1974
    103  CA        50.8070   36.4020   62.9940 C.3   465  ASN465      0.1688
    104  C         50.6500   37.8470   62.5620 C.2   465  ASN465      0.2292
    105  O         51.1530   38.2460   61.4700 O.2   465  ASN465     -0.2864
    106  CB        50.4820   35.5390   61.7710 C.3   465  ASN465      0.1181
    107  CG        50.9550   34.1010   61.9050 C.2   465  ASN465      0.2629
    108  OD1       51.8250   33.7900   62.6890 O.2   465  ASN465     -0.2716
    109  ND2       50.3940   33.2310   61.0950 N.am  465  ASN465     -0.0877
    110  N         47.9750   44.1050   63.1700 N.3   468  TYR468     -0.1241
    111  CA        47.5160   45.0190   64.2170 C.3   468  TYR468      0.1605
    112  C         47.4100   46.4420   63.6610 C.2   468  TYR468      0.2264
    113  O         47.1750   47.3910   64.4140 O.2   468  TYR468     -0.2867
    114  CB        48.4790   45.0090   65.4140 C.3   468  TYR468      0.0534
    115  CG        48.4910   43.6690   66.0990 C.ar  468  TYR468     -0.0201
    116  CD1       47.4720   43.3270   67.0350 C.ar  468  TYR468     -0.0009
    117  CD2       49.4630   42.7000   65.7740 C.ar  468  TYR468     -0.0009
    118  CE1       47.4590   42.0870   67.6710 C.ar  468  TYR468      0.0417
    119  CE2       49.4460   41.4450   66.3940 C.ar  468  TYR468      0.0417
    120  CZ        48.4210   41.1390   67.3410 C.ar  468  TYR468      0.1957
    121  OH        48.3900   39.9000   67.9720 O.3   468  TYR468     -0.2866
    122  N         44.0060   37.2010   68.2900 N.3   493  ALA493     -0.1245
    123  CA        44.2810   38.6230   68.5980 C.3   493  ALA493      0.1562
    124  C         44.7000   39.3620   67.3380 C.2   493  ALA493      0.2260
    125  O         45.9010   39.4520   67.0250 O.2   493  ALA493     -0.2867
    126  CB        45.3800   38.7790   69.6970 C.3   493  ALA493      0.0290
    127  N         53.0750   51.6130   67.3990 N.3   535  PHE535     -0.1241
    128  CA        51.6760   52.0390   67.2830 C.3   535  PHE535      0.1605
    129  C         51.4610   53.4310   67.8460 C.2   535  PHE535      0.2264
    130  O         50.4060   53.7170   68.3850 O.2   535  PHE535     -0.2867
    131  CB        50.7240   51.0100   67.9360 C.3   535  PHE535      0.0534
    132  CG        50.9720   49.5780   67.4820 C.ar  535  PHE535     -0.0203
    133  CD1       50.6890   49.1840   66.1720 C.ar  535  PHE535     -0.0042
    134  CD2       51.4810   48.6340   68.3610 C.ar  535  PHE535     -0.0042
    135  CE1       50.9090   47.8870   65.7350 C.ar  535  PHE535     -0.0003
    136  CE2       51.7100   47.3350   67.9320 C.ar  535  PHE535     -0.0003
    137  CZ        51.4100   46.9630   66.6040 C.ar  535  PHE535     -0.0000
    138  N         40.9710   42.5200   67.8860 N.3   594  TRP594     -0.1241
    139  CA        41.8360   43.2510   68.8260 C.3   594  TRP594      0.1605
    140  C         41.4930   44.7300   68.7580 C.2   594  TRP594      0.2264
    141  O         41.8700   45.4070   67.7840 O.2   594  TRP594     -0.2867
    142  CB        43.3210   42.9970   68.4910 C.3   594  TRP594      0.0550
    143  CG        44.2060   42.9590   69.7020 C.ar  594  TRP594      0.0003
    144  CD1       45.2700   43.7610   69.9600 C.ar  594  TRP594      0.0946
    145  CD2       44.0400   42.1130   70.8560 C.ar  594  TRP594      0.0152
    146  NE1       45.8100   43.4460   71.1920 N.ar  594  TRP594     -0.2442
    147  CE2       45.0730   42.4390   71.7610 C.ar  594  TRP594      0.0810
    148  CE3       43.1300   41.0880   71.1940 C.ar  594  TRP594      0.0012
    149  CZ2       45.2210   41.7940   73.0060 C.ar  594  TRP594      0.0191
    150  CZ3       43.2550   40.4680   72.4110 C.ar  594  TRP594      0.0001
    151  CH2       44.3200   40.8110   73.3110 C.ar  594  TRP594      0.0015
    152  N         42.0200   49.7870   68.1540 N.3   605  TRP605     -0.1241
    153  CA        41.8060   48.5170   68.8480 C.3   605  TRP605      0.1605
    154  C         40.5760   48.6110   69.7700 C.2   605  TRP605      0.2264
    155  O         40.6610   48.3050   70.9750 O.2   605  TRP605     -0.2867
    156  CB        43.0680   48.1050   69.6670 C.3   605  TRP605      0.0550
    157  CG        44.3820   47.9430   68.8530 C.ar  605  TRP605      0.0003
    158  CD1       44.5240   47.9540   67.4950 C.ar  605  TRP605      0.0946
    159  CD2       45.6980   47.6730   69.3880 C.ar  605  TRP605      0.0152
    160  NE1       45.8470   47.7470   67.1470 N.ar  605  TRP605     -0.2442
    161  CE2       46.5790   47.5470   68.2940 C.ar  605  TRP605      0.0810
    162  CE3       46.2040   47.5100   70.6910 C.ar  605  TRP605      0.0012
    163  CZ2       47.9530   47.3020   68.4600 C.ar  605  TRP605      0.0191
    164  CZ3       47.5610   47.2510   70.8590 C.ar  605  TRP605      0.0001
    165  CH2       48.4220   47.1510   69.7490 C.ar  605  TRP605      0.0015
    166  N         55.6550   42.0210   61.1190 N.3   733  TRP733     -0.1241
    167  CA        54.8680   41.2140   62.0390 C.3   733  TRP733      0.1605
    168  C         53.4490   41.7730   62.2140 C.2   733  TRP733      0.2264
    169  O         52.5040   41.0220   62.3770 O.2   733  TRP733     -0.2867
    170  CB        55.5820   41.0410   63.4030 C.3   733  TRP733      0.0550
    171  CG        55.6810   42.2970   64.2580 C.ar  733  TRP733      0.0003
    172  CD1       56.6610   43.2540   64.2060 C.ar  733  TRP733      0.0946
    173  CD2       54.7860   42.7060   65.3030 C.ar  733  TRP733      0.0152
    174  NE1       56.4310   44.2290   65.1540 N.ar  733  TRP733     -0.2442
    175  CE2       55.2810   43.9180   65.8340 C.ar  733  TRP733      0.0810
    176  CE3       53.6060   42.1580   65.8540 C.ar  733  TRP733      0.0012
    177  CZ2       54.6310   44.5970   66.8760 C.ar  733  TRP733      0.0191
    178  CZ3       52.9740   42.8300   66.8740 C.ar  733  TRP733      0.0001
    179  CH2       53.4880   44.0340   67.3770 C.ar  733  TRP733      0.0015
@<TRIPOS>BOND
     1   109   107   am
     2   166   167    1
     3   105   104    2
     4   106   107    1
     5   106   103    1
     6   107   108    2
     7   167   168    1
     8   167   170    1
     9   168   169    2
    10   104   103    1
    11   103   102    1
    12   110   111    1
    13   170   171    1
    14   112   111    1
    15   112   113    2
    16   102    96   am
    17   172   171   ar
    18   172   174   ar
    19   111   114    1
    20   171   173   ar
    21   174   175   ar
    22   173   175   ar
    23   173   176   ar
    24    96    97    2
    25    96    95    1
    26   114   115    1
    27   135   133   ar
    28   135   137   ar
    29   117   115   ar
    30   117   119   ar
    31   175   177   ar
    32   176   178   ar
    33   115   116   ar
    34   133   132   ar
    35    94    95    1
    36    95    98    1
    37   119   120   ar
    38   137   136   ar
    39   178   179   ar
    40   177   179   ar
    41   125   124    2
    42   116   118   ar
    43   160   158   ar
    44   160   161   ar
    45   128   127    1
    46   128   129    1
    47   128   131    1
    48   124   123    1
    49   120   118   ar
    50   120   121    1
    51   132   131    1
    52   132   134   ar
    53   158   157   ar
    54   141   140    2
    55    98    99    1
    56   129   130    2
    57   138   139    1
    58   136   134   ar
    59   152   153    1
    60   122   123    1
    61   161   163   ar
    62   161   159   ar
    63   163   165   ar
    64   142   139    1
    65   142   143    1
    66   123   126    1
    67   140   139    1
    68    99   100    1
    69   153   156    1
    70   153   154    1
    71   157   159   ar
    72   157   156    1
    73    79    78    1
    74    79    80    2
    75    93    91    1
    76    83    84    1
    77    78    81    1
    78    78    77    1
    79   159   162   ar
    80    81    82    1
    81   143   144   ar
    82   143   145   ar
    83    92    91    1
    84   165   164   ar
    85   154   155    2
    86    91    90    2
    87   144   146   ar
    88    84    87    1
    89    84    85    1
    90    88    87    1
    91    88    89    1
    92   100   101    1
    93    90    89    1
    94   162   164   ar
    95   145   148   ar
    96   145   147   ar
    97    85    86    2
    98    75    74   ar
    99   146   147   ar
   100   148   150   ar
   101    16    14   ar
   102   147   149   ar
   103    76    74   ar
   104    74    73    1
   105    14    15   ar
   106    14    13    1
   107   150   151   ar
   108    40    39    1
   109    72    71    2
   110   149   151   ar
   111    13    10    1
   112    12    11    2
   113    73    70    1
   114    66    65    2
   115    70    71    1
   116    70    69    2
   117    69    65    1
   118    37    38    1
   119    37    36    1
   120    39    38    2
   121    39    41    1
   122    11    10    1
   123    11    17   am
   124    20    19    2
   125    65    64    1
   126    10     9    1
   127    35    36    1
   128    35    32    1
   129    23    25   ar
   130    23    22   ar
   131    18    19    1
   132    18    17    1
   133    18    21    1
   134    25    26   ar
   135    62    56    1
   136    62    61    1
   137    31    32    1
   138     9     3   am
   139    56    55    1
   140    68    67    1
   141    49    48   ar
   142     7     5    1
   143    22    21    1
   144    22    24   ar
   145    64    67    1
   146    64    63    1
   147    32    33    1
   148    26    24   ar
   149    26    28   ar
   150    50    48   ar
   151    55    52    1
   152    48    47    1
   153    24    27   ar
   154     3     4    2
   155     3     2    1
   156    34    33    2
   157    28    30   ar
   158    61    58    1
   159     5     2    1
   160     5     6    1
   161    46    47    1
   162    46    43    1
   163     2     1    1
   164    27    29   ar
   165     8     6    1
   166    58    57    1
   167    58    59    1
   168    52    53    1
   169    52    51    1
   170    30    29   ar
   171    57    53   am
   172    53    54    2
   173    42    43    1
   174    43    44    1
   175    59    60    2
   176    44    45    2
