@<TRIPOS>MOLECULE
tmp/2vzvA00.pdb
 186 184 0 0 0
SMALL
GASTEIGER

@<TRIPOS>ATOM
      1  N          9.2220   24.4720  -31.9570 N.3   161  ILE161     -0.1231
      2  CA         9.8960   24.9520  -30.7630 C.3   161  ILE161      0.1692
      3  C         10.0450   23.7640  -29.7970 C.2   161  ILE161      0.2592
      4  O         10.7070   22.7970  -30.1370 O.2   161  ILE161     -0.2718
      5  CB         9.1570   26.2060  -30.1770 C.3   161  ILE161      0.0266
      6  CG1        8.9540   27.2450  -31.2880 C.3   161  ILE161      0.0019
      7  CG2        9.9420   26.8340  -29.0050 C.3   161  ILE161      0.0020
      8  CD1        7.8890   28.2640  -31.0120 C.3   161  ILE161      0.0001
      9  N          9.4040   23.8040  -28.6360 N.am  162  ASP162     -0.1960
     10  CA         9.5470   22.7300  -27.6480 C.3   162  ASP162      0.1840
     11  C          8.1960   22.2300  -27.1240 C.2   162  ASP162      0.2622
     12  O          8.1110   21.6950  -26.0090 O.2   162  ASP162     -0.2715
     13  CB        10.4070   23.2060  -26.4770 C.3   162  ASP162      0.1450
     14  CG         9.7890   24.3860  -25.7320 C.2   162  ASP162      0.3671
     15  OD1        8.6550   24.8250  -26.0890 O.co2 162  ASP162     -0.2456
     16  OD2       10.4540   24.8760  -24.7840 O.co2 162  ASP162     -0.2456
     17  N          7.1510   22.4040  -27.9270 N.am  163  TRP163     -0.1974
     18  CA         5.8000   22.0800  -27.4940 C.3   163  TRP163      0.1640
     19  C          5.5200   20.5790  -27.4250 C.2   163  TRP163      0.2290
     20  O          4.7360   20.1220  -26.5820 O.2   163  TRP163     -0.2864
     21  CB         4.7700   22.7620  -28.3970 C.3   163  TRP163      0.0576
     22  CG         4.9070   24.2540  -28.4830 C.ar  163  TRP163      0.0006
     23  CD1        5.7120   25.0510  -27.7290 C.ar  163  TRP163      0.0946
     24  CD2        4.1750   25.1290  -29.3540 C.ar  163  TRP163      0.0152
     25  NE1        5.5460   26.3650  -28.0860 N.ar  163  TRP163     -0.2442
     26  CE2        4.6050   26.4450  -29.0780 C.ar  163  TRP163      0.0810
     27  CE3        3.2000   24.9250  -30.3460 C.ar  163  TRP163      0.0012
     28  CZ2        4.1050   27.5590  -29.7620 C.ar  163  TRP163      0.0191
     29  CZ3        2.6950   26.0320  -31.0210 C.ar  163  TRP163      0.0001
     30  CH2        3.1540   27.3360  -30.7250 C.ar  163  TRP163      0.0015
     31  N          1.2780   31.9190  -31.4620 N.3   353  GLU353     -0.1245
     32  CA         2.7140   32.0960  -31.6610 C.3   353  GLU353      0.1567
     33  C          3.0990   31.4220  -32.9770 C.2   353  GLU353      0.2260
     34  O          3.4820   30.2440  -32.9990 O.2   353  GLU353     -0.2867
     35  CB         3.5600   31.5740  -30.4790 C.3   353  GLU353      0.0388
     36  CG         5.0410   31.9770  -30.5820 C.3   353  GLU353      0.1160
     37  CD         5.8940   31.5540  -29.3970 C.2   353  GLU353      0.3649
     38  OE1        5.4140   30.7510  -28.5780 O.co2 353  GLU353     -0.2457
     39  OE2        7.0570   32.0190  -29.2880 O.co2 353  GLU353     -0.2457
     40  N          9.1030   32.3360  -31.9170 N.3   378  CYS378     -0.1221
     41  CA        10.4740   32.3750  -31.4290 C.3   378  CYS378      0.1808
     42  C         11.2480   31.1390  -31.8480 C.2   378  CYS378      0.2601
     43  O         10.6840   30.1820  -32.3750 O.2   378  CYS378     -0.2717
     44  CB        10.4860   32.4180  -29.9020 C.3   378  CYS378      0.0970
     45  SG        10.2780   30.7870  -29.0950 S.3   378  CYS378     -0.0800
     46  N         12.5500   31.1720  -31.5750 N.am  379  CYS379     -0.1970
     47  CA        13.3450   29.9630  -31.3650 C.3   379  CYS379      0.1712
     48  C         13.6490   29.1660  -32.6440 C.2   379  CYS379      0.2296
     49  O         14.1050   28.0310  -32.5810 O.2   379  CYS379     -0.2864
     50  CB        12.7000   29.1020  -30.2570 C.3   379  CYS379      0.0983
     51  SG        12.1800   30.0550  -28.7550 S.3   379  CYS379     -0.0798
     52  N         20.2470   31.0310  -29.3760 N.3   390  GLU390     -0.1245
     53  CA        19.0000   30.3240  -29.6040 C.3   390  GLU390      0.1567
     54  C         18.9580   29.7900  -31.0300 C.2   390  GLU390      0.2260
     55  O         19.4860   30.4270  -31.9520 O.2   390  GLU390     -0.2867
     56  CB        17.8020   31.2320  -29.3240 C.3   390  GLU390      0.0388
     57  CG        16.4480   30.6140  -29.6480 C.3   390  GLU390      0.1160
     58  CD        16.0530   29.4970  -28.6860 C.2   390  GLU390      0.3649
     59  OE1       16.3340   28.3170  -28.9990 O.co2 390  GLU390     -0.2457
     60  OE2       15.4640   29.8020  -27.6200 O.co2 390  GLU390     -0.2457
     61  N         10.0860   36.1650  -28.5140 N.3   428  ASP428     -0.1225
     62  CA        11.0770   36.2150  -27.4380 C.3   428  ASP428      0.1805
     63  C         11.9980   37.4140  -27.6640 C.2   428  ASP428      0.2597
     64  O         12.2140   38.2110  -26.7510 O.2   428  ASP428     -0.2718
     65  CB        11.8910   34.9210  -27.3480 C.3   428  ASP428      0.1424
     66  CG        11.0620   33.7130  -26.8950 C.2   428  ASP428      0.3668
     67  OD1        9.8030   33.7610  -26.9090 O.co2 428  ASP428     -0.2456
     68  OD2       11.6880   32.6820  -26.5510 O.co2 428  ASP428     -0.2456
     69  N         12.5330   37.5320  -28.8790 N.am  429  PHE429     -0.1976
     70  CA        13.3370   38.6860  -29.2660 C.3   429  PHE429      0.1639
     71  C         12.6010   39.5900  -30.2510 C.2   429  PHE429      0.2290
     72  O         12.0400   39.1090  -31.2510 O.2   429  PHE429     -0.2864
     73  CB        14.6590   38.2250  -29.8760 C.3   429  PHE429      0.0560
     74  CG        15.6110   37.6460  -28.8760 C.ar  429  PHE429     -0.0200
     75  CD1       16.6710   38.4090  -28.3890 C.ar  429  PHE429     -0.0042
     76  CD2       15.4390   36.3430  -28.4030 C.ar  429  PHE429     -0.0042
     77  CE1       17.5520   37.8800  -27.4460 C.ar  429  PHE429     -0.0003
     78  CE2       16.3130   35.8060  -27.4640 C.ar  429  PHE429     -0.0003
     79  CZ        17.3710   36.5710  -26.9840 C.ar  429  PHE429     -0.0000
     80  N          8.0920   39.2570  -24.9560 N.3   457  SER457     -0.1217
     81  CA         8.9760   39.4110  -23.8090 C.3   457  SER457      0.1889
     82  C          9.0430   40.8920  -23.3720 C.2   457  SER457      0.2288
     83  O          8.0930   41.6660  -23.6040 O.2   457  SER457     -0.2866
     84  CB        10.3620   38.8680  -24.1370 C.3   457  SER457      0.2089
     85  OG        10.9700   39.6850  -25.1070 O.3   457  SER457     -0.2183
     86  N         11.7990   42.7780  -24.1320 N.3   459  ARG459     -0.1245
     87  CA        12.7430   43.3940  -25.0520 C.3   459  ARG459      0.1563
     88  C         12.0500   44.4210  -25.9610 C.2   459  ARG459      0.2260
     89  O         11.0150   44.1210  -26.5570 O.2   459  ARG459     -0.2867
     90  CB        13.4520   42.3160  -25.8780 C.3   459  ARG459      0.0307
     91  CG        14.1930   41.2820  -25.0360 C.3   459  ARG459      0.0489
     92  CD        15.0580   40.3570  -25.8890 C.3   459  ARG459      0.2205
     93  NE        15.9030   39.4740  -25.0740 N.pl3 459  ARG459     -0.0865
     94  CZ        15.4980   38.3360  -24.4990 C.cat 459  ARG459      0.5346
     95  NH1       14.2440   37.9060  -24.6350 N.pl3 459  ARG459      0.1354
     96  NH2       16.3520   37.6220  -23.7770 N.pl3 459  ARG459      0.1354
     97  N          8.1660   37.8700  -20.3590 N.3   471  MET471     -0.1230
     98  CA         8.3050   36.4380  -20.5420 C.3   471  MET471      0.1702
     99  C          9.4030   35.9010  -19.6130 C.2   471  MET471      0.2592
    100  O         10.4670   35.4630  -20.0670 O.2   471  MET471     -0.2718
    101  CB         8.6120   36.1650  -22.0090 C.3   471  MET471      0.0401
    102  CG         8.3480   34.7710  -22.4670 C.3   471  MET471      0.0596
    103  SD         8.4070   34.7360  -24.2640 S.3   471  MET471     -0.1393
    104  CE         6.6650   34.9740  -24.6250 C.3   471  MET471      0.0692
    105  N          9.1240   35.9440  -18.3100 N.am  472  ASN472     -0.1960
    106  CA        10.0910   35.5500  -17.2740 C.3   472  ASN472      0.1819
    107  C          9.9590   34.0930  -16.8010 C.2   472  ASN472      0.2621
    108  O         10.6530   33.6710  -15.8690 O.2   472  ASN472     -0.2715
    109  CB         9.9680   36.4750  -16.0540 C.3   472  ASN472      0.1195
    110  CG        10.3290   37.9240  -16.3600 C.2   472  ASN472      0.2630
    111  OD1       11.2310   38.2100  -17.1500 O.2   472  ASN472     -0.2716
    112  ND2        9.6350   38.8460  -15.7050 N.am  472  ASN472     -0.0877
    113  N          9.0900   33.3270  -17.4500 N.am  473  GLY473     -0.1954
    114  CA         8.6960   32.0270  -16.9360 C.3   473  GLY473      0.1869
    115  C          7.6510   32.2650  -15.8590 C.2   473  GLY473      0.2309
    116  O          7.3180   33.4190  -15.5870 O.2   473  GLY473     -0.2863
    117  N          7.3590   27.8040  -16.7350 N.3   475  TYR475     -0.1241
    118  CA         6.7850   26.8440  -17.6870 C.3   475  TYR475      0.1605
    119  C          6.7450   25.4420  -17.0850 C.2   475  TYR475      0.2264
    120  O          6.4650   24.4680  -17.7760 O.2   475  TYR475     -0.2867
    121  CB         7.5860   26.8370  -18.9980 C.3   475  TYR475      0.0534
    122  CG         7.6940   28.1990  -19.6190 C.ar  475  TYR475     -0.0201
    123  CD1        6.5950   28.7850  -20.2460 C.ar  475  TYR475     -0.0009
    124  CD2        8.8880   28.9150  -19.5730 C.ar  475  TYR475     -0.0009
    125  CE1        6.6750   30.0550  -20.8170 C.ar  475  TYR475      0.0417
    126  CE2        8.9860   30.1890  -20.1450 C.ar  475  TYR475      0.0417
    127  CZ         7.8700   30.7560  -20.7620 C.ar  475  TYR475      0.1957
    128  OH         7.9490   32.0100  -21.3280 O.3   475  TYR475     -0.2866
    129  N          3.0200   34.4030  -21.7990 N.3   500  ALA500     -0.1245
    130  CA         3.2230   32.9580  -21.9320 C.3   500  ALA500      0.1562
    131  C          3.7790   32.3180  -20.6560 C.2   500  ALA500      0.2260
    132  O          5.0000   32.2810  -20.4450 O.2   500  ALA500     -0.2867
    133  CB         4.1380   32.6470  -23.1170 C.3   500  ALA500      0.0290
    134  N         12.3890   20.0100  -20.5480 N.3   542  PHE542     -0.1241
    135  CA        11.0530   19.4700  -20.3130 C.3   542  PHE542      0.1605
    136  C         10.8720   18.0870  -20.9030 C.2   542  PHE542      0.2264
    137  O          9.7970   17.7550  -21.3590 O.2   542  PHE542     -0.2867
    138  CB         9.9830   20.3920  -20.8830 C.3   542  PHE542      0.0534
    139  CG        10.1760   21.8390  -20.5560 C.ar  542  PHE542     -0.0203
    140  CD1        9.8660   22.3280  -19.3020 C.ar  542  PHE542     -0.0042
    141  CD2       10.6300   22.7290  -21.5340 C.ar  542  PHE542     -0.0042
    142  CE1       10.0250   23.6860  -19.0130 C.ar  542  PHE542     -0.0003
    143  CE2       10.7890   24.0830  -21.2640 C.ar  542  PHE542     -0.0003
    144  CZ        10.4850   24.5660  -20.0000 C.ar  542  PHE542     -0.0000
    145  N         -0.1860   28.8360  -20.6530 N.3   601  TRP601     -0.1241
    146  CA         0.6840   28.1010  -21.5660 C.3   601  TRP601      0.1605
    147  C          0.5650   26.5800  -21.3990 C.2   601  TRP601      0.2264
    148  O          1.1940   25.9890  -20.5220 O.2   601  TRP601     -0.2867
    149  CB         2.1330   28.5580  -21.4200 C.3   601  TRP601      0.0550
    150  CG         2.9510   28.4390  -22.6770 C.ar  601  TRP601      0.0003
    151  CD1        4.0340   27.6190  -22.8860 C.ar  601  TRP601      0.0946
    152  CD2        2.7720   29.1780  -23.8910 C.ar  601  TRP601      0.0152
    153  NE1        4.5250   27.8000  -24.1590 N.ar  601  TRP601     -0.2442
    154  CE2        3.7690   28.7490  -24.7950 C.ar  601  TRP601      0.0810
    155  CE3        1.8500   30.1470  -24.3110 C.ar  601  TRP601      0.0012
    156  CZ2        3.8730   29.2620  -26.0910 C.ar  601  TRP601      0.0191
    157  CZ3        1.9550   30.6610  -25.6010 C.ar  601  TRP601      0.0001
    158  CH2        2.9570   30.2160  -26.4750 C.ar  601  TRP601      0.0015
    159  N          1.2650   21.6900  -20.6170 N.3   612  TRP612     -0.1241
    160  CA         0.9100   22.9130  -21.3270 C.3   612  TRP612      0.1605
    161  C         -0.4050   22.8060  -22.1220 C.2   612  TRP612      0.2264
    162  O         -0.4590   23.1480  -23.3130 O.2   612  TRP612     -0.2867
    163  CB         2.0510   23.3470  -22.2700 C.3   612  TRP612      0.0550
    164  CG         3.4200   23.5550  -21.6410 C.ar  612  TRP612      0.0003
    165  CD1        3.7190   23.6640  -20.3030 C.ar  612  TRP612      0.0946
    166  CD2        4.6700   23.7210  -22.3390 C.ar  612  TRP612      0.0152
    167  NE1        5.0760   23.8550  -20.1300 N.ar  612  TRP612     -0.2442
    168  CE2        5.6800   23.8980  -21.3590 C.ar  612  TRP612      0.0810
    169  CE3        5.0350   23.7260  -23.6960 C.ar  612  TRP612      0.0012
    170  CZ2        7.0260   24.0770  -21.6940 C.ar  612  TRP612      0.0191
    171  CZ3        6.3760   23.9060  -24.0260 C.ar  612  TRP612      0.0001
    172  CH2        7.3510   24.0800  -23.0280 C.ar  612  TRP612      0.0015
    173  N         15.1490   30.1220  -15.3270 N.3   740  TRP740     -0.1241
    174  CA        14.2520   30.8650  -16.2300 C.3   740  TRP740      0.1605
    175  C         12.8390   30.2740  -16.3750 C.2   740  TRP740      0.2264
    176  O         11.8950   31.0030  -16.6960 O.2   740  TRP740     -0.2867
    177  CB        14.8970   31.0420  -17.6060 C.3   740  TRP740      0.0550
    178  CG        15.0860   29.7610  -18.3640 C.ar  740  TRP740      0.0003
    179  CD1       16.1610   28.9300  -18.2960 C.ar  740  TRP740      0.0946
    180  CD2       14.1820   29.1720  -19.3130 C.ar  740  TRP740      0.0152
    181  NE1       15.9920   27.8620  -19.1380 N.ar  740  TRP740     -0.2442
    182  CE2       14.7860   27.9800  -19.7770 C.ar  740  TRP740      0.0810
    183  CE3       12.9250   29.5400  -19.8240 C.ar  740  TRP740      0.0012
    184  CZ2       14.1750   27.1360  -20.7220 C.ar  740  TRP740      0.0191
    185  CZ3       12.3160   28.7070  -20.7700 C.ar  740  TRP740      0.0001
    186  CH2       12.9460   27.5130  -21.2040 C.ar  740  TRP740      0.0015
@<TRIPOS>BOND
     1    34    33    2
     2    33    32    1
     3    48    49    2
     4    48    47    1
     5    43    42    2
     6     1     2    1
     7    55    54    2
     8    40    41    1
     9    42    46   am
    10    42    41    1
    11    32    31    1
    12    32    35    1
    13    46    47    1
    14    41    44    1
    15    47    50    1
    16     6     8    1
    17     6     5    1
    18    72    71    2
    19    54    53    1
    20    29    30   ar
    21    29    27   ar
    22     2     5    1
    23     2     3    1
    24    30    28   ar
    25    36    35    1
    26    36    37    1
    27    27    24   ar
    28    50    51    1
    29    71    70    1
    30     5     7    1
    31     4     3    2
    32    44    45    1
    33    73    70    1
    34    73    74    1
    35     3     9   am
    36    28    26   ar
    37    57    56    1
    38    57    58    1
    39    53    52    1
    40    53    56    1
    41    37    39   ar
    42    37    38   ar
    43    24    26   ar
    44    24    22   ar
    45    70    69    1
    46    45    51    1
    47    26    25   ar
    48    59    58   ar
    49    69    63   am
    50    74    76   ar
    51    74    75   ar
    52    58    60   ar
    53     9    10    1
    54    61    62    1
    55    22    21    1
    56    22    23   ar
    57    76    78   ar
    58    21    18    1
    59    75    77   ar
    60    25    23   ar
    61    17    18    1
    62    17    11   am
    63    63    62    1
    64    63    64    2
    65    10    11    1
    66    10    13    1
    67    18    19    1
    68    78    79   ar
    69    77    79   ar
    70    62    65    1
    71    19    20    2
    72    65    66    1
    73    11    12    2
    74    67    66   ar
    75    66    68   ar
    76    89    88    2
    77    13    14    1
    78   158   156   ar
    79   158   157   ar
    80   156   154   ar
    81    15    14   ar
    82    88    87    1
    83    92    93    1
    84    92    91    1
    85    90    87    1
    86    90    91    1
    87    14    16   ar
    88   157   155   ar
    89    85    84    1
    90    93    94    2
    91    87    86    1
    92    80    81    1
    93   154   153   ar
    94   154   152   ar
    95    95    94    1
    96   104   103    1
    97    94    96    1
    98   155   152   ar
    99   103   102    1
   100   153   151   ar
   101    84    81    1
   102   171   169   ar
   103   171   172   ar
   104   152   150   ar
   105    81    82    1
   106   169   166   ar
   107    83    82    2
   108   162   161    2
   109   133   130    1
   110   172   170   ar
   111   151   150   ar
   112   150   149    1
   113   102   101    1
   114   166   164   ar
   115   166   168   ar
   116   163   164    1
   117   163   160    1
   118   161   160    1
   119   101    98    1
   120   130   129    1
   121   130   131    1
   122   170   168   ar
   123   164   165   ar
   124   146   149    1
   125   146   147    1
   126   146   145    1
   127   141   143   ar
   128   141   139   ar
   129   147   148    2
   130   137   136    2
   131   168   167   ar
   132   128   127    1
   133   160   159    1
   134   143   144   ar
   135   186   185   ar
   136   186   184   ar
   137   136   135    1
   138   138   139    1
   139   138   135    1
   140   125   127   ar
   141   125   123   ar
   142   185   183   ar
   143   127   126   ar
   144   184   182   ar
   145   131   132    2
   146   139   140   ar
   147   134   135    1
   148    98    97    1
   149    98    99    1
   150   165   167   ar
   151   123   122   ar
   152   126   124   ar
   153   100    99    2
   154   144   142   ar
   155   183   180   ar
   156   182   180   ar
   157   182   181   ar
   158   122   124   ar
   159   122   121    1
   160    99   105   am
   161   180   178   ar
   162   140   142   ar
   163   181   179   ar
   164   121   118    1
   165   178   179   ar
   166   178   177    1
   167   105   106    1
   168   120   119    2
   169   118   119    1
   170   118   117    1
   171   177   174    1
   172   113   114    1
   173   113   107   am
   174   106   107    1
   175   106   109    1
   176   111   110    2
   177   114   115    1
   178   107   108    2
   179   176   175    2
   180   175   174    1
   181   110   109    1
   182   110   112   am
   183   174   173    1
   184   115   116    2
