@<TRIPOS>MOLECULE
tmp/2w03B00.pdb
 160 152 0 0 0
SMALL
GASTEIGER

@<TRIPOS>ATOM
      1  N         -5.6420   26.7730   -4.9880 N.3   159  LEU159     -0.1245
      2  CA        -5.7050   25.4360   -4.4470 C.3   159  LEU159      0.1561
      3  C         -4.2360   24.9590   -4.3780 C.2   159  LEU159      0.2260
      4  O         -3.7370   24.3350   -5.3230 O.2   159  LEU159     -0.2867
      5  CB        -6.5740   24.5510   -5.3200 C.3   159  LEU159      0.0270
      6  CG        -6.7050   23.1120   -4.8850 C.3   159  LEU159      0.0019
      7  CD1       -7.7340   22.9710   -3.7640 C.3   159  LEU159      0.0001
      8  CD2       -7.0420   22.2660   -6.0780 C.3   159  LEU159      0.0001
      9  N         -3.8620   21.1480   -3.0320 N.3   162  GLY162     -0.1210
     10  CA        -4.4860   20.3800   -4.0870 C.3   162  GLY162      0.1956
     11  C         -5.4250   19.3730   -3.5050 C.2   162  GLY162      0.2612
     12  O         -6.0450   19.6160   -2.4610 O.2   162  GLY162     -0.2717
     13  N         -5.5140   18.2320   -4.1790 N.am  163  HIS163     -0.1962
     14  CA        -6.4390   17.1770   -3.8050 C.3   163  HIS163      0.1772
     15  C         -6.2530   16.8130   -2.3320 C.2   163  HIS163      0.2462
     16  O         -5.1390   16.3860   -1.8880 O.2   163  HIS163     -0.2730
     17  CB        -6.2760   15.9710   -4.7160 C.3   163  HIS163      0.0785
     18  CG        -7.4940   15.1000   -4.8040 C.ar  163  HIS163      0.0821
     19  ND1       -8.2900   14.8120   -3.7140 N.ar  163  HIS163     -0.2267
     20  CD2       -8.0240   14.4170   -5.8490 C.ar  163  HIS163      0.1154
     21  CE1       -9.2730   14.0100   -4.0900 C.ar  163  HIS163      0.1986
     22  NE2       -9.1370   13.7600   -5.3820 N.ar  163  HIS163     -0.2212
     23  N         -7.3430   17.0030   -1.5650 N.am  164  PRO164     -0.2727
     24  CA        -7.3020   16.8610   -0.1270 C.3   164  PRO164      0.1402
     25  C         -7.3420   15.3910    0.2870 C.2   164  PRO164      0.2269
     26  O         -7.0740   15.0800    1.4360 O.2   164  PRO164     -0.2865
     27  CB        -8.5470   17.6460    0.3360 C.3   164  PRO164      0.0296
     28  CG        -9.5210   17.4860   -0.7940 C.3   164  PRO164      0.0237
     29  CD        -8.6900   17.3670   -2.0510 C.3   164  PRO164      0.0939
     30  N         -0.9980   14.9020   -4.6120 N.3   169  PRO169     -0.2116
     31  CA        -1.8170   15.9590   -5.1670 C.3   169  PRO169      0.1372
     32  C         -1.0500   16.7800   -6.1950 C.2   169  PRO169      0.2244
     33  O         -1.6790   17.3490   -7.0940 O.2   169  PRO169     -0.2868
     34  CB        -2.1480   16.8300   -3.9390 C.3   169  PRO169      0.0268
     35  CG        -1.0790   16.4560   -2.8720 C.3   169  PRO169      0.0207
     36  CD        -0.8920   14.9960   -3.1410 C.3   169  PRO169      0.0892
     37  N         -6.3700   25.2290  -12.4130 N.3   271  ALA271     -0.1231
     38  CA        -6.0140   24.2810  -11.3580 C.3   271  ALA271      0.1694
     39  C         -5.7900   22.8640  -11.9300 C.2   271  ALA271      0.2592
     40  O         -4.9400   22.1060  -11.4440 O.2   271  ALA271     -0.2718
     41  CB        -7.0670   24.2860  -10.3050 C.3   271  ALA271      0.0304
     42  N         -6.5230   22.5390  -13.0010 N.am  272  SER272     -0.1952
     43  CA        -6.3710   21.2480  -13.6650 C.3   272  SER272      0.1924
     44  C         -5.2970   21.2870  -14.6940 C.2   272  SER272      0.2314
     45  O         -5.3590   20.5520  -15.6430 O.2   272  SER272     -0.2863
     46  CB        -7.6880   20.7750  -14.3030 C.3   272  SER272      0.2116
     47  OG        -8.2030   21.6750  -15.2860 O.3   272  SER272     -0.2180
     48  N         -3.9210   21.6410  -17.5290 N.3   274  ARG274     -0.1245
     49  CA        -4.0130   21.6200  -19.0270 C.3   274  ARG274      0.1563
     50  C         -5.1570   22.4460  -19.6390 C.2   274  ARG274      0.2260
     51  O         -5.3280   22.4970  -20.8740 O.2   274  ARG274     -0.2867
     52  CB        -4.1680   20.1840  -19.5550 C.3   274  ARG274      0.0307
     53  CG        -5.2830   19.3460  -18.9110 C.3   274  ARG274      0.0489
     54  CD        -6.6000   19.3960  -19.6390 C.3   274  ARG274      0.2205
     55  NE        -7.4810   18.3420  -19.1440 N.pl3 274  ARG274     -0.0865
     56  CZ        -7.7360   17.1900  -19.7730 C.cat 274  ARG274      0.5346
     57  NH1       -7.2080   16.9170  -20.9540 N.pl3 274  ARG274      0.1354
     58  NH2       -8.5350   16.2910  -19.2170 N.pl3 274  ARG274      0.1354
     59  N         -1.2390   13.4970  -13.8080 N.3   293  ILE293     -0.1231
     60  CA        -1.4810   14.6160  -12.9260 C.3   293  ILE293      0.1692
     61  C         -2.5320   14.2110  -11.9320 C.2   293  ILE293      0.2592
     62  O         -3.7010   14.0600  -12.2720 O.2   293  ILE293     -0.2718
     63  CB        -1.8920   15.8650  -13.6670 C.3   293  ILE293      0.0266
     64  CG1       -0.9590   16.0570  -14.8880 C.3   293  ILE293      0.0019
     65  CG2       -1.9120   17.0140  -12.6820 C.3   293  ILE293      0.0020
     66  CD1        0.2020   17.1070  -14.6860 C.3   293  ILE293      0.0001
     67  N         -2.0810   14.0290  -10.6950 N.am  294  THR294     -0.1953
     68  CA        -2.7810   13.2200   -9.7110 C.3   294  THR294      0.1897
     69  C         -2.9120   11.8350  -10.3420 C.2   294  THR294      0.2313
     70  O         -1.8890   11.2290  -10.7570 O.2   294  THR294     -0.2863
     71  CB        -4.1670   13.7780   -9.3800 C.3   294  THR294      0.1794
     72  OG1       -5.0810   13.4110  -10.4190 O.3   294  THR294     -0.2208
     73  CG2       -4.0940   15.2760   -9.2780 C.3   294  THR294      0.0378
     74  N         -3.5530   13.2060  -18.6120 N.3   298  ARG298     -0.1245
     75  CA        -4.5960   14.1220  -19.0970 C.3   298  ARG298      0.1563
     76  C         -4.6230   14.3380  -20.6160 C.2   298  ARG298      0.2260
     77  O         -4.8130   15.4780  -21.0940 O.2   298  ARG298     -0.2867
     78  CB        -4.5830   15.4670  -18.3550 C.3   298  ARG298      0.0307
     79  CG        -4.5200   15.3790  -16.8150 C.3   298  ARG298      0.0489
     80  CD        -5.8380   14.9810  -16.1050 C.3   298  ARG298      0.2205
     81  NE        -5.5210   14.1140  -14.9660 N.pl3 298  ARG298     -0.0865
     82  CZ        -6.3520   13.7730  -13.9860 C.cat 298  ARG298      0.5346
     83  NH1       -5.9150   12.9610  -13.0190 N.pl3 298  ARG298      0.1354
     84  NH2       -7.5990   14.2360  -13.9580 N.pl3 298  ARG298      0.1354
     85  N        -13.2020   23.7590   -4.8460 N.3   378  GLY378     -0.1225
     86  CA       -12.0340   23.0860   -4.2870 C.3   378  GLY378      0.1811
     87  C        -11.1780   23.9820   -3.4380 C.2   378  GLY378      0.2280
     88  O        -10.7970   23.5940   -2.3130 O.2   378  GLY378     -0.2866
     89  N        -19.8270   14.6960  -12.7260 N.3   435  GLU435     -0.1245
     90  CA       -18.7710   14.3490  -11.8040 C.3   435  GLU435      0.1567
     91  C        -18.6100   15.5880  -11.0020 C.2   435  GLU435      0.2260
     92  O        -17.6650   16.2810  -11.2240 O.2   435  GLU435     -0.2867
     93  CB       -17.4750   14.0610  -12.5790 C.3   435  GLU435      0.0388
     94  CG       -16.2840   13.3980  -11.8050 C.3   435  GLU435      0.1160
     95  CD       -14.9310   13.3850  -12.5960 C.2   435  GLU435      0.3649
     96  OE1      -14.7410   14.1950  -13.5300 O.co2 435  GLU435     -0.2457
     97  OE2      -14.0290   12.5790  -12.2750 O.co2 435  GLU435     -0.2457
     98  N        -17.3150   16.8360   -8.2310 N.3   437  HIS437     -0.1226
     99  CA       -16.3810   16.9860   -7.1320 C.3   437  HIS437      0.1752
    100  C        -15.9040   18.4300   -7.0850 C.2   437  HIS437      0.2596
    101  O        -16.3190   19.2710   -7.8650 O.2   437  HIS437     -0.2718
    102  CB       -15.2040   16.0270   -7.2940 C.3   437  HIS437      0.0759
    103  CG       -14.3760   16.2580   -8.5230 C.ar  437  HIS437      0.0818
    104  ND1      -13.6930   17.4340   -8.7590 N.ar  437  HIS437     -0.2268
    105  CD2      -14.0920   15.4420   -9.5660 C.ar  437  HIS437      0.1154
    106  CE1      -13.0310   17.3330   -9.8970 C.ar  437  HIS437      0.1986
    107  NE2      -13.2550   16.1350  -10.4040 N.ar  437  HIS437     -0.2212
    108  N        -15.0090   18.7270   -6.1700 N.am  438  LEU438     -0.1966
    109  CA       -14.7040   20.1110   -5.8590 C.3   438  LEU438      0.1728
    110  C        -14.1120   20.8780   -7.0450 C.2   438  LEU438      0.2616
    111  O        -14.3660   22.0760   -7.1810 O.2   438  LEU438     -0.2715
    112  CB       -13.7750   20.1570   -4.6480 C.3   438  LEU438      0.0311
    113  CG       -14.2260   19.6320   -3.2920 C.3   438  LEU438      0.0022
    114  CD1      -13.0550   18.9930   -2.5780 C.3   438  LEU438      0.0001
    115  CD2      -14.7780   20.7770   -2.4640 C.3   438  LEU438      0.0001
    116  N        -13.3140   20.2050   -7.8850 N.am  439  GLN439     -0.1963
    117  CA       -12.7130   20.8820   -9.0440 C.3   439  GLN439      0.1733
    118  C        -13.7390   21.1060  -10.1780 C.2   439  GLN439      0.2616
    119  O        -13.6410   22.0520  -10.9350 O.2   439  GLN439     -0.2715
    120  CB       -11.4670   20.1390   -9.5600 C.3   439  GLN439      0.0408
    121  CG       -10.6350   20.8450  -10.6970 C.3   439  GLN439      0.0908
    122  CD       -11.3270   20.8920  -12.1090 C.2   439  GLN439      0.2608
    123  OE1      -11.8200   19.8560  -12.6340 O.2   439  GLN439     -0.2717
    124  NE2      -11.3650   22.1080  -12.7240 N.am  439  GLN439     -0.0878
    125  N        -14.7210   20.2370  -10.3170 N.am  440  ASN440     -0.1972
    126  CA       -15.7280   20.4760  -11.3330 C.3   440  ASN440      0.1688
    127  C        -16.8770   21.3970  -10.9320 C.2   440  ASN440      0.2292
    128  O        -17.9480   21.3870  -11.5490 O.2   440  ASN440     -0.2864
    129  CB       -16.2600   19.1760  -11.8450 C.3   440  ASN440      0.1181
    130  CG       -15.2110   18.4010  -12.4830 C.2   440  ASN440      0.2629
    131  OD1      -14.3250   18.9430  -13.1700 O.2   440  ASN440     -0.2716
    132  ND2      -15.2380   17.1180  -12.2450 N.am  440  ASN440     -0.0877
    133  N        -17.2570   20.2450  -17.1560 N.3   457  ASP457     -0.1239
    134  CA       -16.3920   19.1400  -17.5330 C.3   457  ASP457      0.1674
    135  C        -17.1390   17.9900  -18.1440 C.2   457  ASP457      0.2266
    136  O        -17.6750   17.1620  -17.4330 O.2   457  ASP457     -0.2867
    137  CB       -15.5860   18.6360  -16.3610 C.3   457  ASP457      0.1410
    138  CG       -14.4540   17.7150  -16.7840 C.2   457  ASP457      0.3668
    139  OD1      -13.7610   17.2460  -15.8650 O.co2 457  ASP457     -0.2456
    140  OD2      -14.2190   17.4730  -17.9960 O.co2 457  ASP457     -0.2456
    141  N        -19.9860    9.3030   -4.3680 N.3   497  TYR497     -0.1241
    142  CA       -18.6650    9.7040   -3.9470 C.3   497  TYR497      0.1605
    143  C        -18.4950   11.1970   -4.1520 C.2   497  TYR497      0.2264
    144  O        -17.9750   11.8870   -3.2850 O.2   497  TYR497     -0.2867
    145  CB       -17.5740    8.9290   -4.7020 C.3   497  TYR497      0.0534
    146  CG       -16.2460    9.6770   -4.8100 C.ar  497  TYR497     -0.0201
    147  CD1      -15.3660    9.7540   -3.7160 C.ar  497  TYR497     -0.0009
    148  CD2      -15.8880   10.2980   -6.0020 C.ar  497  TYR497     -0.0009
    149  CE1      -14.1690   10.4310   -3.8120 C.ar  497  TYR497      0.0417
    150  CE2      -14.6990   10.9650   -6.1210 C.ar  497  TYR497      0.0417
    151  CZ       -13.8310   11.0420   -5.0290 C.ar  497  TYR497      0.1957
    152  OH       -12.6290   11.7400   -5.1800 O.3   497  TYR497     -0.2866
    153  N        -16.2930   13.5140   -1.5620 N.3   502  ASN502     -0.1240
    154  CA       -15.2970   14.4240   -2.0930 C.3   502  ASN502      0.1653
    155  C        -15.7670   15.8730   -1.8560 C.2   502  ASN502      0.2266
    156  O        -14.9640   16.7480   -1.5400 O.2   502  ASN502     -0.2867
    157  CB       -15.0440   14.0850   -3.5690 C.3   502  ASN502      0.1155
    158  CG       -14.0350   15.0250   -4.2760 C.2   502  ASN502      0.2627
    159  OD1      -13.9370   16.2290   -4.0050 O.2   502  ASN502     -0.2716
    160  ND2      -13.3220   14.4600   -5.2460 N.am  502  ASN502     -0.0877
@<TRIPOS>BOND
     1    77    76    2
     2    57    56    1
     3    51    50    2
     4    76    75    1
     5    56    58    1
     6    56    55    2
     7    54    55    1
     8    54    53    1
     9    50    49    1
    10    52    49    1
    11    52    53    1
    12    75    74    1
    13    75    78    1
    14    49    48    1
    15    78    79    1
    16   135   134    1
    17   135   136    2
    18   140   138   ar
    19   134   133    1
    20   134   137    1
    21    79    80    1
    22   138   137    1
    23   138   139   ar
    24    80    81    1
    25    45    44    2
    26    47    46    1
    27    81    82    2
    28    64    66    1
    29    64    63    1
    30    44    43    1
    31    46    43    1
    32    82    84    1
    33    82    83    1
    34    59    60    1
    35    63    60    1
    36    63    65    1
    37    43    42    1
    38    96    95   ar
    39   131   130    2
    40    42    39   am
    41    60    61    1
    42    89    90    1
    43   124   122   am
    44   123   122    2
    45    95    97   ar
    46    95    94    1
    47    93    94    1
    48    93    90    1
    49   130   132   am
    50   130   129    1
    51    37    38    1
    52    62    61    2
    53   122   121    1
    54    61    67   am
    55    39    40    2
    56    39    38    1
    57   129   126    1
    58    90    91    1
    59   128   127    2
    60    38    41    1
    61   126   127    1
    62   126   125    1
    63    92    91    2
    64   119   118    2
    65    70    69    2
    66   121   120    1
    67    67    68    1
    68    72    71    1
    69   107   106   ar
    70   107   105   ar
    71    69    68    1
    72   125   118   am
    73   118   117    1
    74   106   104   ar
    75    68    71    1
    76   105   103   ar
    77   120   117    1
    78    71    73    1
    79   117   116    1
    80   104   103   ar
    81   103   102    1
    82    98    99    1
    83   116   110   am
    84   101   100    2
    85   102    99    1
    86   111   110    2
    87    99   100    1
    88    33    32    2
    89   100   108   am
    90   110   109    1
    91    32    31    1
    92   108   109    1
    93   150   148   ar
    94   150   151   ar
    95     8     6    1
    96   148   146   ar
    97   109   112    1
    98    20    22   ar
    99    20    18   ar
   100    22    21   ar
   101     4     3    2
   102     5     6    1
   103     5     2    1
   104   160   158   am
   105   152   151    1
   106    31    30    1
   107    31    34    1
   108   151   149   ar
   109     1     2    1
   110     6     7    1
   111    85    86    1
   112   146   145    1
   113   146   147   ar
   114    18    17    1
   115    18    19   ar
   116    17    14    1
   117   145   142    1
   118   112   113    1
   119    30    36    1
   120     2     3    1
   121   141   142    1
   122    86    87    1
   123   158   159    2
   124   158   157    1
   125    13    14    1
   126    13    11   am
   127   143   142    1
   128   143   144    2
   129    21    19   ar
   130    10    11    1
   131    10     9    1
   132    34    35    1
   133   149   147   ar
   134    14    15    1
   135   157   154    1
   136    11    12    2
   137    87    88    2
   138   113   114    1
   139   113   115    1
   140    36    35    1
   141    15    16    2
   142    15    23   am
   143   154   155    1
   144   154   153    1
   145    29    23    1
   146    29    28    1
   147   155   156    2
   148    23    24    1
   149    28    27    1
   150    24    25    1
   151    24    27    1
   152    25    26    2
