@<TRIPOS>MOLECULE
tmp/2w03B01.pdb
 130 121 0 0 0
SMALL
GASTEIGER

@<TRIPOS>ATOM
      1  N         -5.5140   18.2320   -4.1790 N.3   163  HIS163     -0.1241
      2  CA        -6.4390   17.1770   -3.8050 C.3   163  HIS163      0.1621
      3  C         -6.2530   16.8130   -2.3320 C.2   163  HIS163      0.2264
      4  O         -5.1390   16.3860   -1.8880 O.2   163  HIS163     -0.2867
      5  CB        -6.2760   15.9710   -4.7160 C.3   163  HIS163      0.0745
      6  CG        -7.4940   15.1000   -4.8040 C.ar  163  HIS163      0.0817
      7  ND1       -8.2900   14.8120   -3.7140 N.ar  163  HIS163     -0.2268
      8  CD2       -8.0240   14.4170   -5.8490 C.ar  163  HIS163      0.1154
      9  CE1       -9.2730   14.0100   -4.0900 C.ar  163  HIS163      0.1986
     10  NE2       -9.1370   13.7600   -5.3820 N.ar  163  HIS163     -0.2212
     11  N         -5.8160   12.6340   -1.6150 N.3   166  HIS166     -0.1241
     12  CA        -5.0270   12.0490   -2.6550 C.3   166  HIS166      0.1621
     13  C         -3.5640   11.9750   -2.1990 C.2   166  HIS166      0.2264
     14  O         -3.0930   12.8740   -1.5210 O.2   166  HIS166     -0.2867
     15  CB        -5.1780   12.9240   -3.9010 C.3   166  HIS166      0.0745
     16  CG        -4.6460   12.2950   -5.1460 C.ar  166  HIS166      0.0817
     17  ND1       -3.3280   11.8950   -5.2780 N.ar  166  HIS166     -0.2268
     18  CD2       -5.2530   11.9750   -6.3120 C.ar  166  HIS166      0.1154
     19  CE1       -3.1460   11.3600   -6.4720 C.ar  166  HIS166      0.1986
     20  NE2       -4.3000   11.3920   -7.1170 N.ar  166  HIS166     -0.2212
     21  N         -2.0810   14.0290  -10.6950 N.3   294  THR294     -0.1203
     22  CA        -2.7810   13.2200   -9.7110 C.3   294  THR294      0.1994
     23  C         -2.9120   11.8350  -10.3420 C.2   294  THR294      0.2617
     24  O         -1.8890   11.2290  -10.7570 O.2   294  THR294     -0.2717
     25  CB        -4.1670   13.7780   -9.3800 C.3   294  THR294      0.1784
     26  OG1       -5.0810   13.4110  -10.4190 O.3   294  THR294     -0.2211
     27  CG2       -4.0940   15.2760   -9.2780 C.3   294  THR294      0.0376
     28  N         -4.1710   11.3850  -10.4600 N.am  295  ASN295     -0.1974
     29  CA        -4.5460   10.0400  -10.9240 C.3   295  ASN295      0.1688
     30  C         -4.1360    9.5950  -12.3430 C.2   295  ASN295      0.2292
     31  O         -3.5410    8.5250  -12.5190 O.2   295  ASN295     -0.2864
     32  CB        -6.0500    9.8800  -10.7990 C.3   295  ASN295      0.1181
     33  CG        -6.4330    9.0280   -9.6430 C.2   295  ASN295      0.2629
     34  OD1       -5.6120    8.7400   -8.7580 O.2   295  ASN295     -0.2716
     35  ND2       -7.6980    8.6070   -9.6270 N.am  295  ASN295     -0.0877
     36  N         -3.5530   13.2060  -18.6120 N.3   298  ARG298     -0.1245
     37  CA        -4.5960   14.1220  -19.0970 C.3   298  ARG298      0.1563
     38  C         -4.6230   14.3380  -20.6160 C.2   298  ARG298      0.2260
     39  O         -4.8130   15.4780  -21.0940 O.2   298  ARG298     -0.2867
     40  CB        -4.5830   15.4670  -18.3550 C.3   298  ARG298      0.0307
     41  CG        -4.5200   15.3790  -16.8150 C.3   298  ARG298      0.0489
     42  CD        -5.8380   14.9810  -16.1050 C.3   298  ARG298      0.2205
     43  NE        -5.5210   14.1140  -14.9660 N.pl3 298  ARG298     -0.0865
     44  CZ        -6.3520   13.7730  -13.9860 C.cat 298  ARG298      0.5346
     45  NH1       -5.9150   12.9610  -13.0190 N.pl3 298  ARG298      0.1354
     46  NH2       -7.5990   14.2360  -13.9580 N.pl3 298  ARG298      0.1354
     47  N        -19.8270   14.6960  -12.7260 N.3   435  GLU435     -0.1245
     48  CA       -18.7710   14.3490  -11.8040 C.3   435  GLU435      0.1567
     49  C        -18.6100   15.5880  -11.0020 C.2   435  GLU435      0.2260
     50  O        -17.6650   16.2810  -11.2240 O.2   435  GLU435     -0.2867
     51  CB       -17.4750   14.0610  -12.5790 C.3   435  GLU435      0.0388
     52  CG       -16.2840   13.3980  -11.8050 C.3   435  GLU435      0.1160
     53  CD       -14.9310   13.3850  -12.5960 C.2   435  GLU435      0.3649
     54  OE1      -14.7410   14.1950  -13.5300 O.co2 435  GLU435     -0.2457
     55  OE2      -14.0290   12.5790  -12.2750 O.co2 435  GLU435     -0.2457
     56  N        -17.3150   16.8360   -8.2310 N.3   437  HIS437     -0.1241
     57  CA       -16.3810   16.9860   -7.1320 C.3   437  HIS437      0.1621
     58  C        -15.9040   18.4300   -7.0850 C.2   437  HIS437      0.2264
     59  O        -16.3190   19.2710   -7.8650 O.2   437  HIS437     -0.2867
     60  CB       -15.2040   16.0270   -7.2940 C.3   437  HIS437      0.0745
     61  CG       -14.3760   16.2580   -8.5230 C.ar  437  HIS437      0.0817
     62  ND1      -13.6930   17.4340   -8.7590 N.ar  437  HIS437     -0.2268
     63  CD2      -14.0920   15.4420   -9.5660 C.ar  437  HIS437      0.1154
     64  CE1      -13.0310   17.3330   -9.8970 C.ar  437  HIS437      0.1986
     65  NE2      -13.2550   16.1350  -10.4040 N.ar  437  HIS437     -0.2212
     66  N        -13.3140   20.2050   -7.8850 N.3   439  GLN439     -0.1245
     67  CA       -12.7130   20.8820   -9.0440 C.3   439  GLN439      0.1566
     68  C        -13.7390   21.1060  -10.1780 C.2   439  GLN439      0.2260
     69  O        -13.6410   22.0520  -10.9350 O.2   439  GLN439     -0.2867
     70  CB       -11.4670   20.1390   -9.5600 C.3   439  GLN439      0.0367
     71  CG       -10.6350   20.8450  -10.6970 C.3   439  GLN439      0.0905
     72  CD       -11.3270   20.8920  -12.1090 C.2   439  GLN439      0.2608
     73  OE1      -11.8200   19.8560  -12.6340 O.2   439  GLN439     -0.2717
     74  NE2      -11.3650   22.1080  -12.7240 N.am  439  GLN439     -0.0878
     75  N        -17.2570   20.2450  -17.1560 N.3   457  ASP457     -0.1239
     76  CA       -16.3920   19.1400  -17.5330 C.3   457  ASP457      0.1674
     77  C        -17.1390   17.9900  -18.1440 C.2   457  ASP457      0.2266
     78  O        -17.6750   17.1620  -17.4330 O.2   457  ASP457     -0.2867
     79  CB       -15.5860   18.6360  -16.3610 C.3   457  ASP457      0.1410
     80  CG       -14.4540   17.7150  -16.7840 C.2   457  ASP457      0.3668
     81  OD1      -13.7610   17.2460  -15.8650 O.co2 457  ASP457     -0.2456
     82  OD2      -14.2190   17.4730  -17.9960 O.co2 457  ASP457     -0.2456
     83  N        -19.9860    9.3030   -4.3680 N.3   497  TYR497     -0.1241
     84  CA       -18.6650    9.7040   -3.9470 C.3   497  TYR497      0.1605
     85  C        -18.4950   11.1970   -4.1520 C.2   497  TYR497      0.2264
     86  O        -17.9750   11.8870   -3.2850 O.2   497  TYR497     -0.2867
     87  CB       -17.5740    8.9290   -4.7020 C.3   497  TYR497      0.0534
     88  CG       -16.2460    9.6770   -4.8100 C.ar  497  TYR497     -0.0201
     89  CD1      -15.3660    9.7540   -3.7160 C.ar  497  TYR497     -0.0009
     90  CD2      -15.8880   10.2980   -6.0020 C.ar  497  TYR497     -0.0009
     91  CE1      -14.1690   10.4310   -3.8120 C.ar  497  TYR497      0.0417
     92  CE2      -14.6990   10.9650   -6.1210 C.ar  497  TYR497      0.0417
     93  CZ       -13.8310   11.0420   -5.0290 C.ar  497  TYR497      0.1957
     94  OH       -12.6290   11.7400   -5.1800 O.3   497  TYR497     -0.2866
     95  N        -16.2930   13.5140   -1.5620 N.3   502  ASN502     -0.1240
     96  CA       -15.2970   14.4240   -2.0930 C.3   502  ASN502      0.1653
     97  C        -15.7670   15.8730   -1.8560 C.2   502  ASN502      0.2266
     98  O        -14.9640   16.7480   -1.5400 O.2   502  ASN502     -0.2867
     99  CB       -15.0440   14.0850   -3.5690 C.3   502  ASN502      0.1155
    100  CG       -14.0350   15.0250   -4.2760 C.2   502  ASN502      0.2627
    101  OD1      -13.9370   16.2290   -4.0050 O.2   502  ASN502     -0.2716
    102  ND2      -13.3220   14.4600   -5.2460 N.am  502  ASN502     -0.0877
    103  N        -14.7540    6.6180   -3.8900 N.3   556  LYS556     -0.1245
    104  CA       -13.6380    6.3650   -4.7960 C.3   556  LYS556      0.1561
    105  C        -12.3460    6.2410   -4.0290 C.2   556  LYS556      0.2260
    106  O        -12.1150    6.9750   -3.0780 O.2   556  LYS556     -0.2867
    107  CB       -13.5100    7.5010   -5.8000 C.3   556  LYS556      0.0271
    108  CG       -12.8260    7.0880   -7.0860 C.3   556  LYS556      0.0035
    109  CD       -12.9310    8.1530   -8.1570 C.3   556  LYS556      0.0206
    110  CE       -11.6310    8.3040   -8.8720 C.3   556  LYS556      0.1093
    111  NZ       -12.0070    8.7320  -10.1780 N.3   556  LYS556     -0.1314
    112  N         -8.6210    6.7800   -4.4130 N.3   558  ASN558     -0.1240
    113  CA        -7.4010    7.2940   -5.0330 C.3   558  ASN558      0.1653
    114  C         -6.1170    6.5160   -4.7470 C.2   558  ASN558      0.2266
    115  O         -5.4700    6.0540   -5.6790 O.2   558  ASN558     -0.2867
    116  CB        -7.2120    8.7500   -4.6880 C.3   558  ASN558      0.1155
    117  CG        -8.4170    9.5670   -5.0280 C.2   558  ASN558      0.2627
    118  OD1       -9.2780    9.1340   -5.8090 O.2   558  ASN558     -0.2716
    119  ND2       -8.5100   10.7530   -4.4350 N.am  558  ASN558     -0.0877
    120  N         -7.8750    2.6120  -15.1420 N.3   566  ARG566     -0.1245
    121  CA        -8.6800    2.9100  -13.9120 C.3   566  ARG566      0.1563
    122  C        -10.1220    2.3080  -13.7410 C.2   566  ARG566      0.2260
    123  O        -10.2410    1.1200  -13.3950 O.2   566  ARG566     -0.2867
    124  CB        -8.4740    4.3780  -13.4800 C.3   566  ARG566      0.0307
    125  CG        -9.5970    4.9480  -12.6670 C.3   566  ARG566      0.0489
    126  CD       -10.4810    5.7500  -13.5550 C.3   566  ARG566      0.2205
    127  NE       -10.0160    7.1220  -13.5350 N.pl3 566  ARG566     -0.0865
    128  CZ       -10.5740    8.0630  -12.7880 C.cat 566  ARG566      0.5346
    129  NH1      -10.1140    9.3040  -12.8090 N.pl3 566  ARG566      0.1354
    130  NH2      -11.6150    7.7530  -12.0260 N.pl3 566  ARG566      0.1354
@<TRIPOS>BOND
     1    39    38    2
     2    38    37    1
     3    37    36    1
     4    37    40    1
     5    40    41    1
     6    77    76    1
     7    77    78    2
     8    82    80   ar
     9    76    75    1
    10    76    79    1
    11    41    42    1
    12    80    79    1
    13    80    81   ar
    14    42    43    1
    15   120   121    1
    16    43    44    2
    17    44    46    1
    18    44    45    1
    19   121   122    1
    20   121   124    1
    21   122   123    2
    22   126   127    1
    23   126   125    1
    24   127   128    2
    25    54    53   ar
    26   124   125    1
    27   129   128    1
    28   128   130    1
    29    47    48    1
    30    74    72   am
    31    73    72    2
    32    53    55   ar
    33    53    52    1
    34    51    52    1
    35    51    48    1
    36    31    30    2
    37    30    29    1
    38    72    71    1
    39    48    49    1
    40    50    49    2
    41    69    68    2
    42    29    32    1
    43    29    28    1
    44    32    33    1
    45    24    23    2
    46    71    70    1
    47    21    22    1
    48    28    23   am
    49    26    25    1
    50    65    64   ar
    51    65    63   ar
    52    23    22    1
    53    68    67    1
    54   111   110    1
    55    64    62   ar
    56    22    25    1
    57    33    35   am
    58    33    34    2
    59    63    61   ar
    60    70    67    1
    61    25    27    1
    62    67    66    1
    63   110   109    1
    64    62    61   ar
    65    61    60    1
    66    56    57    1
    67   109   108    1
    68    59    58    2
    69    60    57    1
    70    57    58    1
    71    20    19   ar
    72    20    18   ar
    73   108   107    1
    74    19    17   ar
    75    18    16   ar
    76    92    90   ar
    77    92    93   ar
    78    90    88   ar
    79     8    10   ar
    80     8     6   ar
    81   118   117    2
    82   107   104    1
    83   115   114    2
    84    10     9   ar
    85    17    16   ar
    86   102   100   am
    87    94    93    1
    88    16    15    1
    89   113   114    1
    90   113   116    1
    91   113   112    1
    92    93    91   ar
    93   117   116    1
    94   117   119   am
    95    88    87    1
    96    88    89   ar
    97     6     5    1
    98     6     7   ar
    99   104   105    1
   100   104   103    1
   101     5     2    1
   102    87    84    1
   103    83    84    1
   104   100   101    2
   105   100    99    1
   106     1     2    1
   107    85    84    1
   108    85    86    2
   109     9     7   ar
   110   105   106    2
   111    15    12    1
   112    91    89   ar
   113     2     3    1
   114    99    96    1
   115    12    13    1
   116    12    11    1
   117     3     4    2
   118    13    14    2
   119    96    97    1
   120    96    95    1
   121    97    98    2
