@<TRIPOS>MOLECULE
tmp/2w04B00.pdb
 127 117 0 0 0
SMALL
GASTEIGER

@<TRIPOS>ATOM
      1  N        -21.8500  -13.7760   -7.3190 N.3   271  SER271     -0.1217
      2  CA       -20.9950  -14.4440   -6.3230 C.3   271  SER271      0.1889
      3  C        -20.1530  -15.5350   -6.9540 C.2   271  SER271      0.2288
      4  O        -19.3440  -16.1540   -6.2490 O.2   271  SER271     -0.2866
      5  CB       -21.8160  -15.0730   -5.2090 C.3   271  SER271      0.2089
      6  OG       -22.3110  -16.3490   -5.5890 O.3   271  SER271     -0.2183
      7  N        -19.8190  -18.6080   -7.6240 N.3   273  ARG273     -0.1231
      8  CA       -19.8690  -20.0220   -7.2810 C.3   273  ARG273      0.1694
      9  C        -21.3180  -20.4830   -7.0300 C.2   273  ARG273      0.2592
     10  O        -21.5790  -21.7020   -6.9020 O.2   273  ARG273     -0.2718
     11  CB       -18.9930  -20.2850   -6.0800 C.3   273  ARG273      0.0321
     12  CG       -19.2590  -19.3240   -4.9610 C.3   273  ARG273      0.0489
     13  CD       -19.0630  -20.0310   -3.6750 C.3   273  ARG273      0.2205
     14  NE       -19.0580  -19.1310   -2.5350 N.pl3 273  ARG273     -0.0865
     15  CZ       -18.7200  -19.5150   -1.3120 C.cat 273  ARG273      0.5346
     16  NH1      -18.3570  -20.7770   -1.0930 N.pl3 273  ARG273      0.1354
     17  NH2      -18.7370  -18.6360   -0.3160 N.pl3 273  ARG273      0.1354
     18  N        -22.2460  -19.5040   -6.9690 N.am  274  THR274     -0.1953
     19  CA       -23.6810  -19.7790   -6.8180 C.3   274  THR274      0.1897
     20  C        -24.3730  -19.6760   -8.1740 C.2   274  THR274      0.2313
     21  O        -24.2390  -18.6950   -8.8840 O.2   274  THR274     -0.2863
     22  CB       -24.3800  -18.8750   -5.7730 C.3   274  THR274      0.1794
     23  OG1      -23.7040  -18.9610   -4.5210 O.3   274  THR274     -0.2208
     24  CG2      -25.7960  -19.3320   -5.5470 C.3   274  THR274      0.0378
     25  N        -25.1650  -23.6770   -4.5750 N.3   285  LYS285     -0.1245
     26  CA       -23.9720  -23.0580   -4.0400 C.3   285  LYS285      0.1561
     27  C        -22.9450  -24.1460   -3.8890 C.2   285  LYS285      0.2260
     28  O        -23.2730  -25.2210   -3.4000 O.2   285  LYS285     -0.2867
     29  CB       -24.2500  -22.4730   -2.6570 C.3   285  LYS285      0.0271
     30  CG       -23.2490  -21.3950   -2.2590 C.3   285  LYS285      0.0035
     31  CD       -23.2540  -21.1040   -0.7860 C.3   285  LYS285      0.0206
     32  CE       -22.4530  -19.8760   -0.5050 C.3   285  LYS285      0.1093
     33  NZ       -22.4330  -19.6080    0.9500 N.3   285  LYS285     -0.1314
     34  N        -11.2930  -14.6670   -4.9230 N.3   292  ILE292     -0.1245
     35  CA       -12.2580  -13.8250   -5.5880 C.3   292  ILE292      0.1561
     36  C        -12.5040  -12.6360   -4.6580 C.2   292  ILE292      0.2260
     37  O        -13.0190  -12.8260   -3.5550 O.2   292  ILE292     -0.2867
     38  CB       -13.5410  -14.6530   -5.9130 C.3   292  ILE292      0.0252
     39  CG1      -13.4420  -15.2080   -7.3340 C.3   292  ILE292      0.0019
     40  CG2      -14.8300  -13.8420   -5.7590 C.3   292  ILE292      0.0019
     41  CD1      -14.3080  -16.4200   -7.5860 C.3   292  ILE292      0.0001
     42  N        -13.0980  -18.9120   -1.9960 N.3   297  ARG297     -0.1245
     43  CA       -14.5300  -19.1760   -1.7830 C.3   297  ARG297      0.1563
     44  C        -14.8150  -20.6560   -1.5240 C.2   297  ARG297      0.2260
     45  O        -15.6570  -21.2780   -2.1950 O.2   297  ARG297     -0.2867
     46  CB       -15.3640  -18.6720   -2.9680 C.3   297  ARG297      0.0307
     47  CG       -15.0870  -17.2300   -3.3570 C.3   297  ARG297      0.0489
     48  CD       -15.5850  -16.2410   -2.3040 C.3   297  ARG297      0.2205
     49  NE       -15.0180  -14.8980   -2.4610 N.pl3 297  ARG297     -0.0865
     50  CZ       -15.2880  -13.8790   -1.6480 C.cat 297  ARG297      0.5346
     51  NH1      -14.7330  -12.6920   -1.8520 N.pl3 297  ARG297      0.1354
     52  NH2      -16.1110  -14.0460   -0.6230 N.pl3 297  ARG297      0.1354
     53  N        -29.8510  -23.2410   -1.8490 N.3   361  ARG361     -0.1245
     54  CA       -30.5900  -22.0590   -1.4450 C.3   361  ARG361      0.1563
     55  C        -31.9330  -21.9330   -2.1760 C.2   361  ARG361      0.2260
     56  O        -32.0390  -22.1820   -3.3910 O.2   361  ARG361     -0.2867
     57  CB       -29.7730  -20.8100   -1.6920 C.3   361  ARG361      0.0307
     58  CG       -30.5990  -19.5640   -1.4860 C.3   361  ARG361      0.0489
     59  CD       -29.7720  -18.3430   -1.5970 C.3   361  ARG361      0.2205
     60  NE       -28.7420  -18.3630   -0.5770 N.pl3 361  ARG361     -0.0865
     61  CZ       -27.4500  -18.2630   -0.8350 C.cat 361  ARG361      0.5346
     62  NH1      -27.0400  -18.1160   -2.0900 N.pl3 361  ARG361      0.1354
     63  NH2      -26.5740  -18.2940    0.1630 N.pl3 361  ARG361      0.1354
     64  N        -25.1700  -10.3690    7.4520 N.3   434  GLU434     -0.1245
     65  CA       -24.1600   -9.6360    6.7420 C.3   434  GLU434      0.1567
     66  C        -24.8020   -8.9330    5.5420 C.2   434  GLU434      0.2260
     67  O        -24.6910   -9.3940    4.3920 O.2   434  GLU434     -0.2867
     68  CB       -22.9810  -10.5150    6.3460 C.3   434  GLU434      0.0388
     69  CG       -21.7680   -9.6720    5.9170 C.3   434  GLU434      0.1160
     70  CD       -20.5190  -10.4920    5.5960 C.2   434  GLU434      0.3649
     71  OE1      -20.6380  -11.7320    5.4100 O.co2 434  GLU434     -0.2457
     72  OE2      -19.4230   -9.8800    5.5250 O.co2 434  GLU434     -0.2457
     73  N        -24.4900   -6.6280    3.3540 N.3   436  HIS436     -0.1241
     74  CA       -23.8630   -5.8620    2.2730 C.3   436  HIS436      0.1621
     75  C        -24.6730   -5.9980    0.9830 C.2   436  HIS436      0.2264
     76  O        -25.6450   -6.7550    0.9260 O.2   436  HIS436     -0.2867
     77  CB       -22.4030   -6.2660    2.0520 C.3   436  HIS436      0.0745
     78  CG       -22.2070   -7.7160    1.7490 C.ar  436  HIS436      0.0817
     79  ND1      -22.6900   -8.3140    0.6010 N.ar  436  HIS436     -0.2268
     80  CD2      -21.5430   -8.6850    2.4270 C.ar  436  HIS436      0.1154
     81  CE1      -22.3410   -9.5890    0.5930 C.ar  436  HIS436      0.1986
     82  NE2      -21.6390   -9.8380    1.6860 N.ar  436  HIS436     -0.2212
     83  N        -24.1100   -7.4050   -1.9350 N.3   438  GLN438     -0.1231
     84  CA       -24.1820   -8.7370   -2.5700 C.3   438  GLN438      0.1698
     85  C        -25.3010   -9.5850   -1.8840 C.2   438  GLN438      0.2592
     86  O        -25.9700  -10.3740   -2.5360 O.2   438  GLN438     -0.2718
     87  CB       -22.7790   -9.4540   -2.5910 C.3   438  GLN438      0.0381
     88  CG       -21.8550   -9.3260   -3.9300 C.3   438  GLN438      0.0905
     89  CD       -20.2530   -9.6210   -3.7600 C.2   438  GLN438      0.2608
     90  OE1      -19.8050  -10.7500   -3.4090 O.2   438  GLN438     -0.2717
     91  NE2      -19.4300   -8.5890   -4.0580 N.am  438  GLN438     -0.0878
     92  N        -25.5310   -9.3730   -0.5840 N.am  439  ASN439     -0.1974
     93  CA       -26.5130  -10.1590    0.2100 C.3   439  ASN439      0.1688
     94  C        -27.9140   -9.5530    0.3940 C.2   439  ASN439      0.2292
     95  O        -28.6190   -9.9040    1.3440 O.2   439  ASN439     -0.2864
     96  CB       -25.9910  -10.4360    1.6180 C.3   439  ASN439      0.1181
     97  CG       -24.9120  -11.4830    1.6640 C.2   439  ASN439      0.2629
     98  OD1      -24.5470  -12.0970    0.6500 O.2   439  ASN439     -0.2716
     99  ND2      -24.3710  -11.6850    2.8620 N.am  439  ASN439     -0.0877
    100  N        -29.9150  -12.7130    2.2400 N.3   455  ARG455     -0.1231
    101  CA       -29.4120  -14.0420    1.9000 C.3   455  ARG455      0.1694
    102  C        -28.0420  -14.3520    2.4960 C.2   455  ARG455      0.2592
    103  O        -27.4200  -13.4980    3.1470 O.2   455  ARG455     -0.2718
    104  CB       -29.3990  -14.2440    0.3840 C.3   455  ARG455      0.0321
    105  CG       -28.5040  -13.2890   -0.4150 C.3   455  ARG455      0.0489
    106  CD       -28.5280  -13.6830   -1.8820 C.3   455  ARG455      0.2205
    107  NE       -27.8130  -12.7710   -2.7770 N.pl3 455  ARG455     -0.0865
    108  CZ       -27.9480  -12.7830   -4.1090 C.cat 455  ARG455      0.5346
    109  NH1      -27.2640  -11.9350   -4.8710 N.pl3 455  ARG455      0.1354
    110  NH2      -28.7900  -13.6460   -4.6920 N.pl3 455  ARG455      0.1354
    111  N        -27.5910  -15.5900    2.2740 N.am  456  ASP456     -0.1974
    112  CA       -26.2390  -16.0520    2.6560 C.3   456  ASP456      0.1709
    113  C        -26.1160  -16.4140    4.1380 C.2   456  ASP456      0.2293
    114  O        -25.5630  -15.6410    4.9360 O.2   456  ASP456     -0.2864
    115  CB       -25.1920  -15.0030    2.2900 C.3   456  ASP456      0.1436
    116  CG       -23.8300  -15.5870    2.0460 C.2   456  ASP456      0.3671
    117  OD1      -23.5810  -16.7590    2.3730 O.co2 456  ASP456     -0.2456
    118  OD2      -22.9890  -14.8400    1.5190 O.co2 456  ASP456     -0.2456
    119  N        -24.1110  -18.5110    5.3000 N.3   458  GLU458     -0.1245
    120  CA       -22.6990  -18.7880    5.6130 C.3   458  GLU458      0.1567
    121  C        -22.0630  -17.6750    6.4350 C.2   458  GLU458      0.2260
    122  O        -21.2900  -17.9420    7.3470 O.2   458  GLU458     -0.2867
    123  CB       -21.8720  -19.0410    4.3590 C.3   458  GLU458      0.0388
    124  CG       -20.3870  -18.6560    4.4910 C.3   458  GLU458      0.1160
    125  CD       -19.7290  -18.4300    3.1280 C.2   458  GLU458      0.3649
    126  OE1      -20.2280  -17.5570    2.3440 O.co2 458  GLU458     -0.2457
    127  OE2      -18.7200  -19.1310    2.8390 O.co2 458  GLU458     -0.2457
@<TRIPOS>BOND
     1    21    20    2
     2    20    19    1
     3     7     8    1
     4    41    39    1
     5    39    38    1
     6     1     2    1
     7     8     9    1
     8     8    11    1
     9     9    18   am
    10     9    10    2
    11    18    19    1
    12     3     2    1
    13     3     4    2
    14    19    22    1
    15     2     5    1
    16    11    12    1
    17    38    40    1
    18    38    35    1
    19    22    24    1
    20    22    23    1
    21     6     5    1
    22    35    34    1
    23    35    36    1
    24    12    13    1
    25   109   108    1
    26   110   108    1
    27    36    37    2
    28    25    26    1
    29   108   107    2
    30    91    89   am
    31    26    27    1
    32    26    29    1
    33    88    89    1
    34    88    87    1
    35    27    28    2
    36    89    90    2
    37    13    14    1
    38    56    55    2
    39    47    46    1
    40    47    48    1
    41    46    43    1
    42   107   106    1
    43    29    30    1
    44    87    84    1
    45    84    83    1
    46    84    85    1
    47    86    85    2
    48    14    15    2
    49    49    48    1
    50    49    50    2
    51    30    31    1
    52    45    44    2
    53    55    54    1
    54    62    61    1
    55    42    43    1
    56    85    92   am
    57   106   105    1
    58    51    50    1
    59    53    54    1
    60    43    44    1
    61    57    58    1
    62    57    54    1
    63    50    52    1
    64    59    58    1
    65    59    60    1
    66    15    16    1
    67    15    17    1
    68    61    60    2
    69    61    63    1
    70    31    32    1
    71    92    93    1
    72    32    33    1
    73   105   104    1
    74    93    94    1
    75    93    96    1
    76   104   101    1
    77    94    95    2
    78    81    79   ar
    79    81    82   ar
    80    79    78   ar
    81    98    97    2
    82    76    75    2
    83    75    74    1
    84   118   116   ar
    85    96    97    1
    86    97    99   am
    87    82    80   ar
    88    78    77    1
    89    78    80   ar
    90   101   100    1
    91   101   102    1
    92   116   115    1
    93   116   117   ar
    94    77    74    1
    95    74    73    1
    96   111   102   am
    97   111   112    1
    98   115   112    1
    99   126   125   ar
   100   102   103    2
   101   112   113    1
   102   127   125   ar
   103   125   124    1
   104   113   114    2
   105   123   124    1
   106   123   120    1
   107    67    66    2
   108   119   120    1
   109    71    70   ar
   110    72    70   ar
   111    66    65    1
   112    70    69    1
   113   120   121    1
   114    69    68    1
   115    68    65    1
   116   121   122    2
   117    65    64    1
