@<TRIPOS>MOLECULE
tmp/2w05A00.pdb
 173 166 0 0 0
SMALL
GASTEIGER

@<TRIPOS>ATOM
      1  N         -0.6030   22.8220    3.0860 N.3    10  ILE10      -0.1231
      2  CA         0.3800   23.2200    4.0850 C.3    10  ILE10       0.1692
      3  C          0.2940   22.3510    5.3320 C.2    10  ILE10       0.2593
      4  O          1.1020   21.4450    5.5360 O.2    10  ILE10      -0.2718
      5  CB         0.1600   24.6700    4.5500 C.3    10  ILE10       0.0266
      6  CG1        0.4370   25.6470    3.4120 C.3    10  ILE10       0.0019
      7  CG2        1.0430   24.9570    5.7470 C.3    10  ILE10       0.0020
      8  CD1        0.2030   27.0920    3.8000 C.3    10  ILE10       0.0001
      9  N         -0.6910   22.6630    6.1680 N.am   11  GLY11      -0.1942
     10  CA        -0.8890   21.9430    7.4080 C.3    11  GLY11       0.2014
     11  C         -2.2850   21.3810    7.5040 C.2    11  GLY11       0.2639
     12  O         -3.0480   21.4410    6.5420 O.2    11  GLY11      -0.2714
     13  N         -2.6320   20.8670    8.6780 N.am   12  GLU12      -0.1963
     14  CA        -3.9310   20.2430    8.8740 C.3    12  GLU12       0.1733
     15  C         -4.3400   20.2800   10.3460 C.2    12  GLU12       0.2617
     16  O         -3.7140   20.9640   11.1580 O.2    12  GLU12      -0.2715
     17  CB        -3.8250   18.7960    8.3880 C.3    12  GLU12       0.0429
     18  CG        -5.1100   18.0180    8.2650 C.3    12  GLU12       0.1163
     19  CD        -4.8580   16.6460    7.6740 C.2    12  GLU12       0.3649
     20  OE1       -4.1190   15.8560    8.3030 O.co2  12  GLU12      -0.2457
     21  OE2       -5.3880   16.3630    6.5780 O.co2  12  GLU12      -0.2457
     22  N         -5.4070   19.5520   10.6690 N.am   13  GLY13      -0.1940
     23  CA        -5.8930   19.4590   12.0350 C.3    13  GLY13       0.2014
     24  C         -6.4930   20.6720   12.7230 C.2    13  GLY13       0.2639
     25  O         -6.3300   21.8170   12.2930 O.2    13  GLY13      -0.2714
     26  N         -7.2010   20.3920   13.8130 N.am   14  THR14      -0.1950
     27  CA        -7.8380   21.4080   14.6450 C.3    14  THR14       0.1897
     28  C         -8.9570   22.1910   13.9790 C.2    14  THR14       0.2313
     29  O        -10.0320   21.6530   13.7020 O.2    14  THR14      -0.2863
     30  CB        -6.7810   22.3750   15.1860 C.3    14  THR14       0.1794
     31  OG1       -6.2160   23.1890   14.2610 O.3    14  THR14      -0.2208
     32  CG2       -5.7600   21.5680   15.9640 C.3    14  THR14       0.0378
     33  N         -5.1570   23.6530    6.0640 N.3    18  VAL18      -0.1245
     34  CA        -4.5250   24.8410    5.4980 C.3    18  VAL18       0.1561
     35  C         -3.7830   24.5410    4.2010 C.2    18  VAL18       0.2260
     36  O         -3.0050   23.5950    4.1170 O.2    18  VAL18      -0.2867
     37  CB        -3.5370   25.4720    6.4960 C.3    18  VAL18       0.0252
     38  CG1       -2.9690   26.7680    5.9190 C.3    18  VAL18       0.0019
     39  CG2       -4.2360   25.7280    7.8140 C.3    18  VAL18       0.0019
     40  N         -2.1200   31.8780    2.4730 N.3    31  ALA31      -0.1245
     41  CA        -2.3730   30.6550    3.2050 C.3    31  ALA31       0.1562
     42  C         -3.8930   30.6190    3.2780 C.2    31  ALA31       0.2260
     43  O         -4.5150   31.5720    3.7470 O.2    31  ALA31      -0.2867
     44  CB        -1.7710   30.7340    4.5950 C.3    31  ALA31       0.0290
     45  N         -7.1860   28.7530    4.7540 N.3    33  LYS33      -0.1245
     46  CA        -7.6270   27.8550    5.8060 C.3    33  LYS33       0.1561
     47  C         -9.1100   27.5310    5.7140 C.2    33  LYS33       0.2260
     48  O         -9.9480   28.4280    5.7290 O.2    33  LYS33      -0.2867
     49  CB        -7.3200   28.4830    7.1620 C.3    33  LYS33       0.0271
     50  CG        -7.6360   27.6030    8.3360 C.3    33  LYS33       0.0035
     51  CD        -7.2000   28.2800    9.6150 C.3    33  LYS33       0.0206
     52  CE        -7.3240   27.3440   10.7910 C.3    33  LYS33       0.1093
     53  NZ        -6.9660   28.0320   12.0530 N.3    33  LYS33      -0.1314
     54  N          0.3270   36.9790   12.3080 N.3    55  VAL55      -0.1245
     55  CA         0.0890   36.6470   10.9020 C.3    55  VAL55       0.1561
     56  C         -1.1630   37.4010   10.4630 C.2    55  VAL55       0.2260
     57  O         -2.2470   37.2210   11.0240 O.2    55  VAL55      -0.2867
     58  CB        -0.1100   35.1230   10.6690 C.3    55  VAL55       0.0252
     59  CG1       -0.3110   34.8460    9.1750 C.3    55  VAL55       0.0019
     60  CG2        1.1150   34.3550   11.1580 C.3    55  VAL55       0.0019
     61  N         -4.9600   34.1330    4.8310 N.3    71  PHE71      -0.1227
     62  CA        -3.8800   34.7500    5.5810 C.3    71  PHE71       0.1736
     63  C         -2.6680   35.0950    4.7390 C.2    71  PHE71       0.2595
     64  O         -2.4880   34.6020    3.6240 O.2    71  PHE71      -0.2718
     65  CB        -3.3810   33.8250    6.7060 C.3    71  PHE71       0.0547
     66  CG        -4.3820   33.5650    7.7880 C.ar   71  PHE71      -0.0202
     67  CD1       -5.2070   32.4450    7.7390 C.ar   71  PHE71      -0.0042
     68  CD2       -4.4810   34.4250    8.8780 C.ar   71  PHE71      -0.0042
     69  CE1       -6.1160   32.1830    8.7660 C.ar   71  PHE71      -0.0003
     70  CE2       -5.3810   34.1740    9.8990 C.ar   71  PHE71      -0.0003
     71  CZ        -6.2010   33.0500    9.8440 C.ar   71  PHE71      -0.0000
     72  N         -1.8390   35.9490    5.3240 N.am   72  GLU72      -0.1965
     73  CA        -0.5590   36.3540    4.7650 C.3    72  GLU72       0.1733
     74  C          0.2180   35.0260    4.7940 C.2    72  GLU72       0.2616
     75  O          0.0960   34.2720    5.7500 O.2    72  GLU72      -0.2715
     76  CB         0.0840   37.3620    5.7250 C.3    72  GLU72       0.0429
     77  CG         1.5740   37.5470    5.5660 C.3    72  GLU72       0.1163
     78  CD         2.2110   38.2060    6.7780 C.2    72  GLU72       0.3649
     79  OE1        3.4060   38.5480    6.7000 O.co2  72  GLU72      -0.2457
     80  OE2        1.5270   38.3750    7.8120 O.co2  72  GLU72      -0.2457
     81  N          1.0090   34.7320    3.7720 N.am   73  PHE73      -0.1960
     82  CA         1.7550   33.4690    3.7410 C.3    73  PHE73       0.1771
     83  C          3.1790   33.5480    4.2840 C.2    73  PHE73       0.2619
     84  O          3.9320   34.4390    3.9100 O.2    73  PHE73      -0.2715
     85  CB         1.8350   32.9440    2.3060 C.3    73  PHE73       0.0574
     86  CG         2.5960   31.6500    2.1720 C.ar   73  PHE73      -0.0200
     87  CD1        1.9850   30.4310    2.4670 C.ar   73  PHE73      -0.0042
     88  CD2        3.9230   31.6490    1.7490 C.ar   73  PHE73      -0.0042
     89  CE1        2.6810   29.2310    2.3380 C.ar   73  PHE73      -0.0003
     90  CE2        4.6330   30.4560    1.6140 C.ar   73  PHE73      -0.0003
     91  CZ         4.0080   29.2400    1.9090 C.ar   73  PHE73      -0.0000
     92  N          3.5400   32.6240    5.1760 N.am   74  LEU74      -0.1963
     93  CA         4.9040   32.5580    5.6920 C.3    74  LEU74       0.1728
     94  C          5.4190   31.1900    5.2820 C.2    74  LEU74       0.2616
     95  O          4.6420   30.2400    5.1720 O.2    74  LEU74      -0.2715
     96  CB         4.9570   32.7530    7.2090 C.3    74  LEU74       0.0311
     97  CG         4.7890   34.2280    7.5780 C.3    74  LEU74       0.0022
     98  CD1        3.4510   34.4200    8.2700 C.3    74  LEU74       0.0001
     99  CD2        5.9370   34.6900    8.4750 C.3    74  LEU74       0.0001
    100  N          6.7250   31.0860    5.0510 N.am   75  HIS75      -0.1959
    101  CA         7.3050   29.8380    4.5690 C.3    75  HIS75       0.1787
    102  C          7.5990   28.7000    5.5110 C.2    75  HIS75       0.2620
    103  O          7.7860   27.5740    5.0480 O.2    75  HIS75      -0.2715
    104  CB         8.5690   30.1330    3.7620 C.3    75  HIS75       0.0785
    105  CG         8.2980   30.8330    2.4690 C.ar   75  HIS75       0.0821
    106  ND1        8.0480   32.1860    2.3940 N.ar   75  HIS75      -0.2267
    107  CD2        8.1880   30.3590    1.2060 C.ar   75  HIS75       0.1154
    108  CE1        7.7940   32.5160    1.1410 C.ar   75  HIS75       0.1986
    109  NE2        7.8730   31.4250    0.3990 N.ar   75  HIS75      -0.2212
    110  N          7.6140   28.9400    6.8180 N.am   76  GLN76      -0.1963
    111  CA         7.9410   27.8420    7.7170 C.3    76  GLN76       0.1733
    112  C          7.5150   28.1020    9.1570 C.2    76  GLN76       0.2616
    113  O          7.4100   29.2530    9.5830 O.2    76  GLN76      -0.2715
    114  CB         9.4550   27.6030    7.6350 C.3    76  GLN76       0.0408
    115  CG         9.9840   26.4120    8.3940 C.3    76  GLN76       0.0908
    116  CD        11.4420   26.1280    8.0720 C.2    76  GLN76       0.2608
    117  OE1       11.7750   25.6570    6.9800 O.2    76  GLN76      -0.2717
    118  NE2       12.3200   26.4210    9.0200 N.am   76  GLN76      -0.0878
    119  N          7.2440   27.0360    9.9040 N.am   77  ASP77      -0.1971
    120  CA         6.8710   27.2150   11.2970 C.3    77  ASP77       0.1709
    121  C          8.0950   26.9430   12.1570 C.2    77  ASP77       0.2293
    122  O          9.1000   26.4270   11.6650 O.2    77  ASP77      -0.2864
    123  CB         5.7100   26.3050   11.7030 C.3    77  ASP77       0.1436
    124  CG         6.0580   24.8360   11.6420 C.2    77  ASP77       0.3671
    125  OD1        7.1820   24.4650   12.0360 O.co2  77  ASP77      -0.2456
    126  OD2        5.1900   24.0510   11.2130 O.co2  77  ASP77      -0.2456
    127  N          9.3630   23.0690   12.5620 N.3    80  LYS80      -0.1245
    128  CA        10.2420   22.6330   11.4810 C.3    80  LYS80       0.1561
    129  C         11.6320   23.2720   11.5620 C.2    80  LYS80       0.2260
    130  O         12.6360   22.6340   11.2320 O.2    80  LYS80      -0.2867
    131  CB         9.5900   22.9630   10.1340 C.3    80  LYS80       0.0271
    132  CG        10.3370   22.4640    8.9190 C.3    80  LYS80       0.0035
    133  CD         9.5800   22.8010    7.6330 C.3    80  LYS80       0.0206
    134  CE        10.3160   22.2750    6.4080 C.3    80  LYS80       0.1093
    135  NZ         9.6590   22.6780    5.1290 N.3    80  LYS80      -0.1314
    136  N          4.3360   24.8700   16.3830 N.3   122  GLN122     -0.1231
    137  CA         3.6440   24.6720   15.1130 C.3   122  GLN122      0.1698
    138  C          2.8750   25.8980   14.6250 C.2   122  GLN122      0.2592
    139  O          2.6360   26.0230   13.4300 O.2   122  GLN122     -0.2718
    140  CB         2.6810   23.4800   15.1980 C.3   122  GLN122      0.0381
    141  CG         3.3700   22.1260   15.3280 C.3   122  GLN122      0.0905
    142  CD         3.9280   21.8530   16.7230 C.2   122  GLN122      0.2608
    143  OE1        4.6160   20.8510   16.9340 O.2   122  GLN122     -0.2717
    144  NE2        3.6260   22.7280   17.6790 N.am  122  GLN122     -0.0878
    145  N          2.4670   26.8000   15.5160 N.am  123  ASN123     -0.1974
    146  CA         1.7560   27.9720   15.0120 C.3   123  ASN123      0.1688
    147  C          2.4970   29.2850   15.1770 C.2   123  ASN123      0.2292
    148  O          1.8950   30.3400   15.2920 O.2   123  ASN123     -0.2864
    149  CB         0.3110   28.0670   15.5500 C.3   123  ASN123      0.1181
    150  CG         0.2190   28.0490   17.0590 C.2   123  ASN123      0.2629
    151  OD1       -0.7170   27.4640   17.6160 O.2   123  ASN123     -0.2716
    152  ND2        1.1530   28.7050   17.7290 N.am  123  ASN123     -0.0877
    153  N          5.1750   31.2430   13.0430 N.3   125  LEU125     -0.1245
    154  CA         5.7380   31.2250   11.6970 C.3   125  LEU125      0.1561
    155  C          6.8490   32.2580   11.5000 C.2   125  LEU125      0.2260
    156  O          6.7850   33.3820   12.0200 O.2   125  LEU125     -0.2867
    157  CB         4.6180   31.4510   10.6850 C.3   125  LEU125      0.0270
    158  CG         3.3420   30.6250   10.8790 C.3   125  LEU125      0.0019
    159  CD1        2.3230   31.0930    9.8750 C.3   125  LEU125      0.0001
    160  CD2        3.6190   29.1220   10.7020 C.3   125  LEU125      0.0001
    161  N          0.2910   32.7560   14.7870 N.3   135  ALA135     -0.1231
    162  CA        -0.7320   32.3340   13.8500 C.3   135  ALA135      0.1694
    163  C         -1.7730   31.4890   14.5700 C.2   135  ALA135      0.2592
    164  O         -1.5490   31.0330   15.6850 O.2   135  ALA135     -0.2718
    165  CB        -0.0990   31.5200   12.7390 C.3   135  ALA135      0.0304
    166  N         -2.9150   31.2880   13.9300 N.am  136  ASP136     -0.1974
    167  CA        -3.9510   30.4330   14.4840 C.3   136  ASP136      0.1709
    168  C         -4.5170   30.9090   15.8040 C.2   136  ASP136      0.2293
    169  O         -4.6920   30.1150   16.7280 O.2   136  ASP136     -0.2864
    170  CB        -3.3990   29.0210   14.6660 C.3   136  ASP136      0.1436
    171  CG        -4.4700   27.9590   14.5720 C.2   136  ASP136      0.3671
    172  OD1       -4.2430   26.8450   15.0900 O.co2 136  ASP136     -0.2456
    173  OD2       -5.5290   28.2320   13.9690 O.co2 136  ASP136     -0.2456
@<TRIPOS>BOND
     1   109   108   ar
     2   109   107   ar
     3   108   106   ar
     4   107   105   ar
     5    90    88   ar
     6    90    91   ar
     7    88    86   ar
     8    91    89   ar
     9    86    85    1
    10    86    87   ar
    11    85    82    1
    12    89    87   ar
    13   106   105   ar
    14   105   104    1
    15    40    41    1
    16     1     2    1
    17    41    42    1
    18    41    44    1
    19    42    43    2
    20     6     8    1
    21     6     5    1
    22    64    63    2
    23    82    81    1
    24    82    83    1
    25   104   101    1
    26    81    74   am
    27    84    83    2
    28     2     5    1
    29     2     3    1
    30    36    35    2
    31    35    34    1
    32    83    92   am
    33     5     7    1
    34   101   100    1
    35   101   102    1
    36    63    72   am
    37    63    62    1
    38    45    46    1
    39    73    74    1
    40    73    72    1
    41    73    76    1
    42    74    75    2
    43    61    62    1
    44   103   102    2
    45   100    94   am
    46   135   134    1
    47    95    94    2
    48    92    93    1
    49    94    93    1
    50     3     4    2
    51     3     9   am
    52    34    33    1
    53    34    37    1
    54   102   110   am
    55    77    76    1
    56    77    78    1
    57    62    65    1
    58    93    96    1
    59    47    48    2
    60    47    46    1
    61    46    49    1
    62    38    37    1
    63     9    10    1
    64   134   133    1
    65    37    39    1
    66    12    11    2
    67    21    19   ar
    68    79    78   ar
    69    65    66    1
    70    78    80   ar
    71   110   111    1
    72   117   116    2
    73    49    50    1
    74    96    97    1
    75    10    11    1
    76    11    13   am
    77    97    98    1
    78    97    99    1
    79   133   132    1
    80   114   111    1
    81   114   115    1
    82    19    18    1
    83    19    20   ar
    84   111   112    1
    85    67    66   ar
    86    67    69   ar
    87    66    68   ar
    88   116   115    1
    89   116   118   am
    90    18    17    1
    91    50    51    1
    92    17    14    1
    93    13    14    1
    94    69    71   ar
    95    14    15    1
    96    68    70   ar
    97   132   131    1
    98   112   113    2
    99   112   119   am
   100    59    58    1
   101    51    52    1
   102    71    70   ar
   103   159   158    1
   104   119   120    1
   105   131   128    1
   106    15    22   am
   107    15    16    2
   108    56    55    1
   109    56    57    2
   110    58    55    1
   111    58    60    1
   112    22    23    1
   113   157   158    1
   114   157   154    1
   115   160   158    1
   116    52    53    1
   117    55    54    1
   118   126   124   ar
   119   130   129    2
   120   120   123    1
   121   120   121    1
   122   128   129    1
   123   128   127    1
   124   155   154    1
   125   155   156    2
   126   124   123    1
   127   124   125   ar
   128   122   121    2
   129   154   153    1
   130    23    24    1
   131    25    24    2
   132    24    26   am
   133   165   162    1
   134   139   138    2
   135    29    28    2
   136    26    27    1
   137   162   163    1
   138   162   161    1
   139   166   167    1
   140   166   163   am
   141   173   171   ar
   142    28    27    1
   143    31    30    1
   144   167   170    1
   145   167   168    1
   146   163   164    2
   147   171   170    1
   148   171   172   ar
   149   138   137    1
   150   138   145   am
   151    27    30    1
   152   146   147    1
   153   146   145    1
   154   146   149    1
   155   137   140    1
   156   137   136    1
   157   147   148    2
   158    30    32    1
   159   140   141    1
   160   141   142    1
   161   149   150    1
   162   168   169    2
   163   142   143    2
   164   142   144   am
   165   150   151    2
   166   150   152   am
