@<TRIPOS>MOLECULE
tmp/2w06A00.pdb
 164 156 0 0 0
SMALL
GASTEIGER

@<TRIPOS>ATOM
      1  N         -0.5150   24.4820    4.0580 N.3    10  ILE10      -0.1231
      2  CA         0.4860   24.8550    5.0490 C.3    10  ILE10       0.1692
      3  C          0.3890   23.9360    6.2550 C.2    10  ILE10       0.2592
      4  O          1.4010   23.4680    6.7750 O.2    10  ILE10      -0.2718
      5  CB         0.2860   26.3000    5.5350 C.3    10  ILE10       0.0266
      6  CG1        0.5940   27.2810    4.4060 C.3    10  ILE10       0.0019
      7  CG2        1.1730   26.5650    6.7410 C.3    10  ILE10       0.0020
      8  CD1        0.3910   28.7330    4.7950 C.3    10  ILE10       0.0001
      9  N         -0.8370   23.6900    6.7050 N.am   11  GLY11      -0.1957
     10  CA        -1.0380   22.8240    7.8500 C.3    11  GLY11       0.1869
     11  C         -2.4800   22.7820    8.3010 C.2    11  GLY11       0.2309
     12  O         -3.3600   23.3650    7.6670 O.2    11  GLY11      -0.2863
     13  N         -4.7600   23.8750   11.2770 N.3    13  GLY13      -0.1210
     14  CA        -4.8810   24.6720   12.4840 C.3    13  GLY13       0.1956
     15  C         -5.9160   24.1650   13.4740 C.2    13  GLY13       0.2612
     16  O         -6.5230   23.1080   13.2770 O.2    13  GLY13      -0.2717
     17  N         -6.1160   24.9320   14.5420 N.am   14  THR14      -0.1952
     18  CA        -7.0690   24.5880   15.5930 C.3    14  THR14       0.1897
     19  C         -8.5040   24.5100   15.0830 C.2    14  THR14       0.2313
     20  O         -9.2830   23.6680   15.5340 O.2    14  THR14      -0.2863
     21  CB        -7.0300   25.6230   16.7370 C.3    14  THR14       0.1794
     22  OG1       -5.7080   25.6840   17.2860 O.3    14  THR14      -0.2208
     23  CG2       -8.0210   25.2450   17.8360 C.3    14  THR14       0.0378
     24  N         -5.0810   25.3260    6.8490 N.3    18  VAL18      -0.1245
     25  CA        -4.4580   26.5860    6.4560 C.3    18  VAL18       0.1561
     26  C         -3.7350   26.3800    5.1370 C.2    18  VAL18       0.2260
     27  O         -2.8830   25.5010    5.0220 O.2    18  VAL18      -0.2867
     28  CB        -3.4320   27.0610    7.5020 C.3    18  VAL18       0.0252
     29  CG1       -2.8610   28.4100    7.0880 C.3    18  VAL18       0.0019
     30  CG2       -4.0840   27.1580    8.8720 C.3    18  VAL18       0.0019
     31  N         -2.0520   33.6110    3.4120 N.3    31  ALA31      -0.1245
     32  CA        -2.2810   32.3860    4.1690 C.3    31  ALA31       0.1562
     33  C         -3.7830   32.3830    4.4280 C.2    31  ALA31       0.2260
     34  O         -4.3020   33.2230    5.1700 O.2    31  ALA31      -0.2867
     35  CB        -1.5190   32.4120    5.4850 C.3    31  ALA31       0.0290
     36  N         -7.2040   30.6600    5.8560 N.3    33  LYS33      -0.1245
     37  CA        -7.6850   29.7300    6.8680 C.3    33  LYS33       0.1561
     38  C         -9.2000   29.5550    6.7890 C.2    33  LYS33       0.2260
     39  O         -9.9540   30.5230    6.9310 O.2    33  LYS33      -0.2867
     40  CB        -7.2970   30.2260    8.2640 C.3    33  LYS33       0.0271
     41  CG        -7.6660   29.2740    9.3840 C.3    33  LYS33       0.0035
     42  CD        -7.1170   29.7510   10.7150 C.3    33  LYS33       0.0206
     43  CE        -7.3280   28.6990   11.7960 C.3    33  LYS33       0.1093
     44  NZ        -6.6260   29.0500   13.0600 N.3    33  LYS33      -0.1314
     45  N          0.5420   38.7470   13.1670 N.3    57  VAL57      -0.1245
     46  CA         0.2590   38.4260   11.7730 C.3    57  VAL57       0.1561
     47  C         -1.0240   39.1600   11.3900 C.2    57  VAL57       0.2260
     48  O         -2.0830   38.9280   11.9700 O.2    57  VAL57      -0.2867
     49  CB         0.0730   36.9060   11.5760 C.3    57  VAL57       0.0252
     50  CG1       -0.2240   36.5890   10.1140 C.3    57  VAL57       0.0019
     51  CG2        1.3300   36.1870   12.0210 C.3    57  VAL57       0.0019
     52  N         -4.9600   35.9010    5.9890 N.3    73  PHE73      -0.1227
     53  CA        -3.8580   36.4990    6.7290 C.3    73  PHE73       0.1736
     54  C         -2.6420   36.8160    5.8710 C.2    73  PHE73       0.2595
     55  O         -2.4910   36.3210    4.7520 O.2    73  PHE73      -0.2718
     56  CB        -3.3810   35.5660    7.8520 C.3    73  PHE73       0.0547
     57  CG        -4.3430   35.4270    8.9970 C.ar   73  PHE73      -0.0202
     58  CD1       -5.2160   34.3480    9.0630 C.ar   73  PHE73      -0.0042
     59  CD2       -4.3470   36.3570   10.0310 C.ar   73  PHE73      -0.0042
     60  CE1       -6.0810   34.1950   10.1490 C.ar   73  PHE73      -0.0003
     61  CE2       -5.2050   36.2160   11.1190 C.ar   73  PHE73      -0.0003
     62  CZ        -6.0730   35.1330   11.1790 C.ar   73  PHE73      -0.0000
     63  N         -1.7800   37.6520    6.4420 N.am   74  GLU74      -0.1965
     64  CA        -0.5140   38.0540    5.8530 C.3    74  GLU74       0.1733
     65  C          0.3050   36.7610    5.8420 C.2    74  GLU74       0.2616
     66  O          0.2200   35.9770    6.7790 O.2    74  GLU74      -0.2715
     67  CB         0.1320   39.0960    6.7770 C.3    74  GLU74       0.0429
     68  CG         1.6180   39.3140    6.6030 C.3    74  GLU74       0.1163
     69  CD         2.2440   39.9940    7.8140 C.2    74  GLU74       0.3649
     70  OE1        3.4560   40.2820    7.7720 O.co2  74  GLU74      -0.2457
     71  OE2        1.5320   40.2370    8.8110 O.co2  74  GLU74      -0.2457
     72  N          1.0940   36.5330    4.7980 N.am   75  PHE75      -0.1960
     73  CA         1.8940   35.3080    4.7130 C.3    75  PHE75       0.1771
     74  C          3.3620   35.4600    5.1100 C.2    75  PHE75       0.2619
     75  O          4.0410   36.3850    4.6660 O.2    75  PHE75      -0.2715
     76  CB         1.8400   34.7570    3.2830 C.3    75  PHE75       0.0574
     77  CG         2.6480   33.4990    3.0790 C.ar   75  PHE75      -0.0200
     78  CD1        2.1130   32.2520    3.3940 C.ar   75  PHE75      -0.0042
     79  CD2        3.9460   33.5650    2.5790 C.ar   75  PHE75      -0.0042
     80  CE1        2.8510   31.0880    3.2160 C.ar   75  PHE75      -0.0003
     81  CE2        4.6980   32.4070    2.3960 C.ar   75  PHE75      -0.0003
     82  CZ         4.1490   31.1610    2.7160 C.ar   75  PHE75      -0.0000
     83  N          3.8490   34.5490    5.9490 N.am   76  LEU76      -0.1963
     84  CA         5.2560   34.5420    6.3400 C.3    76  LEU76       0.1728
     85  C          5.8010   33.2020    5.8530 C.2    76  LEU76       0.2616
     86  O          5.0180   32.2770    5.6110 O.2    76  LEU76      -0.2715
     87  CB         5.4160   34.6990    7.8560 C.3    76  LEU76       0.0311
     88  CG         5.2270   36.1450    8.3270 C.3    76  LEU76       0.0022
     89  CD1        3.7650   36.3730    8.6830 C.3    76  LEU76       0.0001
     90  CD2        6.1060   36.4240    9.5310 C.3    76  LEU76       0.0001
     91  N          7.1210   33.0760    5.7150 N.am   77  HIS77      -0.1959
     92  CA         7.6880   31.8370    5.1790 C.3    77  HIS77       0.1787
     93  C          8.0510   30.6460    6.0620 C.2    77  HIS77       0.2620
     94  O          8.3160   29.5660    5.5370 O.2    77  HIS77      -0.2715
     95  CB         8.8920   32.1690    4.2920 C.3    77  HIS77       0.0785
     96  CG         8.5170   32.7830    2.9790 C.ar   77  HIS77       0.0821
     97  ND1        8.0040   34.0580    2.8720 N.ar   77  HIS77      -0.2267
     98  CD2        8.5370   32.2780    1.7210 C.ar   77  HIS77       0.1154
     99  CE1        7.7220   34.3120    1.6060 C.ar   77  HIS77       0.1986
    100  NE2        8.0350   33.2490    0.8870 N.ar   77  HIS77      -0.2212
    101  N          8.0700   30.8080    7.3820 N.am   78  GLN78      -0.1963
    102  CA         8.4060   29.6730    8.2400 C.3    78  GLN78       0.1733
    103  C          7.8880   29.8750    9.6610 C.2    78  GLN78       0.2616
    104  O          7.7760   31.0110   10.1240 O.2    78  GLN78      -0.2715
    105  CB         9.9290   29.4760    8.2510 C.3    78  GLN78       0.0408
    106  CG        10.4180   28.1970    8.9270 C.3    78  GLN78       0.0908
    107  CD        11.8360   27.8360    8.5110 C.2    78  GLN78       0.2608
    108  OE1       12.1020   27.5550    7.3350 O.2    78  GLN78      -0.2717
    109  NE2       12.7550   27.8490    9.4650 N.am   78  GLN78      -0.0878
    110  N          7.5440   28.7830   10.3440 N.am   79  ASP79      -0.1971
    111  CA         7.0760   28.9010   11.7190 C.3    79  ASP79       0.1709
    112  C          8.2410   28.5500   12.6250 C.2    79  ASP79       0.2293
    113  O          9.2310   27.9810   12.1670 O.2    79  ASP79      -0.2864
    114  CB         5.8540   28.0020   11.9970 C.3    79  ASP79       0.1436
    115  CG         6.1470   26.5070   11.8550 C.2    79  ASP79       0.3671
    116  OD1        7.1670   26.0280   12.3880 O.co2  79  ASP79      -0.2456
    117  OD2        5.3330   25.8070   11.2210 O.co2  79  ASP79      -0.2456
    118  N          9.5190   24.6410   12.8870 N.3    82  LYS82      -0.1245
    119  CA        10.3980   24.1920   11.8110 C.3    82  LYS82       0.1561
    120  C         11.7800   24.8190   11.9510 C.2    82  LYS82       0.2260
    121  O         12.7960   24.1520   11.7600 O.2    82  LYS82      -0.2867
    122  CB         9.7940   24.5450   10.4470 C.3    82  LYS82       0.0271
    123  CG        10.6040   24.0410    9.2540 C.3    82  LYS82       0.0035
    124  CD         9.8660   24.3040    7.9420 C.3    82  LYS82       0.0206
    125  CE        10.6910   23.8880    6.7340 C.3    82  LYS82       0.1093
    126  NZ        10.0180   24.2490    5.4410 N.3    82  LYS82      -0.1314
    127  N          4.2660   26.4950   16.6050 N.3   124  GLN124     -0.1231
    128  CA         3.5330   26.4410   15.3470 C.3   124  GLN124      0.1698
    129  C          2.8260   27.7340   14.9340 C.2   124  GLN124      0.2592
    130  O          2.6520   27.9730   13.7390 O.2   124  GLN124     -0.2718
    131  CB         2.5220   25.2970   15.3790 C.3   124  GLN124      0.0381
    132  CG         3.1730   23.9290   15.3380 C.3   124  GLN124      0.0905
    133  CD         3.8310   23.6460   14.0050 C.2   124  GLN124      0.2608
    134  OE1        4.5730   22.6760   13.8600 O.2   124  GLN124     -0.2717
    135  NE2        3.5520   24.4880   13.0150 N.am  124  GLN124     -0.0878
    136  N          2.3980   28.5600   15.8890 N.am  125  ASN125     -0.1974
    137  CA         1.7440   29.8070   15.4960 C.3   125  ASN125      0.1688
    138  C          2.6110   31.0410   15.6810 C.2   125  ASN125      0.2292
    139  O          2.1120   32.1630   15.7690 O.2   125  ASN125     -0.2864
    140  CB         0.3770   30.0000   16.1820 C.3   125  ASN125      0.1181
    141  CG         0.3940   29.6830   17.6520 C.2   125  ASN125      0.2629
    142  OD1        1.2440   30.1650   18.3950 O.2   125  ASN125     -0.2716
    143  ND2       -0.5700   28.8760   18.0900 N.am  125  ASN125     -0.0877
    144  N          5.4300   32.9510   13.7190 N.3   127  LEU127     -0.1245
    145  CA         5.9900   33.0310   12.3730 C.3   127  LEU127      0.1561
    146  C          7.1350   34.0160   12.2020 C.2   127  LEU127      0.2260
    147  O          7.0930   35.1300   12.7240 O.2   127  LEU127     -0.2867
    148  CB         4.8780   33.3860   11.4010 C.3   127  LEU127      0.0270
    149  CG         3.7530   32.3600   11.4650 C.3   127  LEU127      0.0019
    150  CD1        2.5540   32.9220   10.7850 C.3   127  LEU127      0.0001
    151  CD2        4.1940   31.0460   10.8260 C.3   127  LEU127      0.0001
    152  N          0.4640   34.4600   15.4440 N.3   137  ALA137     -0.1231
    153  CA        -0.6960   34.1970   14.5930 C.3   137  ALA137      0.1694
    154  C         -1.8220   33.5800   15.4220 C.2   137  ALA137      0.2592
    155  O         -1.5620   33.0010   16.4750 O.2   137  ALA137     -0.2718
    156  CB        -0.3110   33.2470   13.4770 C.3   137  ALA137      0.0304
    157  N         -3.0600   33.7020   14.9410 N.am  138  ASP138     -0.1974
    158  CA        -4.2330   33.1470   15.6230 C.3   138  ASP138      0.1709
    159  C         -4.6180   33.8710   16.9070 C.2   138  ASP138      0.2293
    160  O         -5.3380   33.3290   17.7420 O.2   138  ASP138     -0.2864
    161  CB        -4.0130   31.6610   15.9300 C.3   138  ASP138      0.1436
    162  CG        -4.5650   30.7520   14.8480 C.2   138  ASP138      0.3671
    163  OD1       -4.6480   31.1860   13.6820 O.co2 138  ASP138     -0.2456
    164  OD2       -4.9070   29.5930   15.1650 O.co2 138  ASP138     -0.2456
@<TRIPOS>BOND
     1   100    99   ar
     2   100    98   ar
     3    99    97   ar
     4    98    96   ar
     5    81    79   ar
     6    81    82   ar
     7    79    77   ar
     8    82    80   ar
     9    97    96   ar
    10    96    95    1
    11    77    76    1
    12    77    78   ar
    13    80    78   ar
    14    76    73    1
    15    31    32    1
    16     1     2    1
    17    32    33    1
    18    32    35    1
    19    95    92    1
    20     6     8    1
    21     6     5    1
    22    33    34    2
    23    75    74    2
    24    73    72    1
    25    73    74    1
    26    55    54    2
    27    72    65   am
    28    27    26    2
    29     2     5    1
    30     2     3    1
    31    74    83   am
    32    26    25    1
    33    92    91    1
    34    92    93    1
    35   126   125    1
    36     5     7    1
    37    94    93    2
    38    86    85    2
    39    91    85   am
    40    65    64    1
    41    65    66    2
    42    85    84    1
    43    64    63    1
    44    64    67    1
    45    36    37    1
    46    54    63   am
    47    54    53    1
    48    83    84    1
    49    52    53    1
    50    93   101   am
    51     3     9   am
    52     3     4    2
    53    84    87    1
    54    25    24    1
    55    25    28    1
    56    68    67    1
    57    68    69    1
    58     9    10    1
    59    53    56    1
    60   125   124    1
    61    38    37    1
    62    38    39    2
    63    37    40    1
    64    29    28    1
    65   108   107    2
    66   101   102    1
    67    28    30    1
    68    12    11    2
    69    70    69   ar
    70    69    71   ar
    71    10    11    1
    72    56    57    1
    73    87    88    1
    74   124   123    1
    75   102   105    1
    76   102   103    1
    77   105   106    1
    78    40    41    1
    79    88    89    1
    80    88    90    1
    81   107   106    1
    82   107   109   am
    83    57    58   ar
    84    57    59   ar
    85    58    60   ar
    86   123   122    1
    87    41    42    1
    88   103   104    2
    89   103   110   am
    90    59    61   ar
    91    50    49    1
    92    60    62   ar
    93   110   111    1
    94   122   119    1
    95    42    43    1
    96   150   149    1
    97   151   149    1
    98    61    62   ar
    99   117   115   ar
   100    13    14    1
   101    47    46    1
   102    47    48    2
   103   148   149    1
   104   148   145    1
   105    49    46    1
   106    49    51    1
   107   111   114    1
   108   111   112    1
   109   121   120    2
   110    46    45    1
   111    43    44    1
   112   119   120    1
   113   119   118    1
   114   115   114    1
   115   115   116   ar
   116   113   112    2
   117   146   145    1
   118   146   147    2
   119   145   144    1
   120    14    15    1
   121   135   133   am
   122    16    15    2
   123    15    17   am
   124   156   153    1
   125   163   162   ar
   126   130   129    2
   127   134   133    2
   128   133   132    1
   129    17    18    1
   130   153   154    1
   131   153   152    1
   132   162   164   ar
   133   162   161    1
   134   129   128    1
   135   129   136   am
   136   157   154   am
   137   157   158    1
   138    19    20    2
   139    19    18    1
   140   132   131    1
   141   128   131    1
   142   128   127    1
   143   154   155    2
   144   137   138    1
   145   137   136    1
   146   137   140    1
   147    18    21    1
   148   158   161    1
   149   158   159    1
   150   138   139    2
   151   140   141    1
   152    21    22    1
   153    21    23    1
   154   159   160    2
   155   141   143   am
   156   141   142    2
