@<TRIPOS>MOLECULE
tmp/2w08B01.pdb
 91 84 0 0 0
SMALL
GASTEIGER

@<TRIPOS>ATOM
      1  N        -16.8960   18.0190   33.7930 N.3    58  ASP58      -0.1225
      2  CA       -15.7810   17.6260   32.9320 C.3    58  ASP58       0.1805
      3  C        -14.8780   16.6520   33.6680 C.2    58  ASP58       0.2597
      4  O        -14.7990   16.6760   34.8940 O.2    58  ASP58      -0.2718
      5  CB       -14.9680   18.8640   32.5490 C.3    58  ASP58       0.1424
      6  CG       -13.9170   18.5690   31.5020 C.2    58  ASP58       0.3668
      7  OD1      -14.2020   17.7610   30.5990 O.co2  58  ASP58      -0.2456
      8  OD2      -12.8120   19.1470   31.5790 O.co2  58  ASP58      -0.2456
      9  N        -14.1760   15.8040   32.9190 N.am   59  ASN59      -0.1974
     10  CA       -13.2160   14.8790   33.5180 C.3    59  ASN59       0.1688
     11  C        -13.7600   14.0910   34.7100 C.2    59  ASN59       0.2292
     12  O        -13.1020   13.9730   35.7540 O.2    59  ASN59      -0.2864
     13  CB       -11.9380   15.6410   33.9000 C.3    59  ASN59       0.1181
     14  CG       -11.3130   16.3340   32.7110 C.2    59  ASN59       0.2629
     15  OD1      -11.7570   16.1500   31.5730 O.2    59  ASN59      -0.2716
     16  ND2      -10.2820   17.1400   32.9580 N.am   59  ASN59      -0.0877
     17  N        -11.5100    9.9270   33.5680 N.3    62  LEU62      -0.1245
     18  CA       -10.6880   10.1350   32.3720 C.3    62  LEU62       0.1561
     19  C         -9.3730    9.3930   32.4780 C.2    62  LEU62       0.2260
     20  O         -8.6770    9.5120   33.4850 O.2    62  LEU62      -0.2867
     21  CB       -10.3960   11.6230   32.1930 C.3    62  LEU62       0.0270
     22  CG        -9.3660   12.0200   31.1350 C.3    62  LEU62       0.0019
     23  CD1       -9.8270   11.6470   29.7310 C.3    62  LEU62       0.0001
     24  CD2       -9.1050   13.5350   31.2300 C.3    62  LEU62       0.0001
     25  N         -5.8180    9.2700   30.7240 N.3    64  TYR64      -0.1241
     26  CA        -5.1040   10.2360   29.8980 C.3    64  TYR64       0.1605
     27  C         -3.6230    9.9140   29.9040 C.2    64  TYR64       0.2264
     28  O         -3.0620    9.6130   30.9460 O.2    64  TYR64      -0.2867
     29  CB        -5.2860   11.6220   30.5070 C.3    64  TYR64       0.0534
     30  CG        -4.9350   12.7810   29.6010 C.ar   64  TYR64      -0.0201
     31  CD1       -5.7670   13.1360   28.5420 C.ar   64  TYR64      -0.0009
     32  CD2       -3.7970   13.5400   29.8310 C.ar   64  TYR64      -0.0009
     33  CE1       -5.4640   14.2130   27.7260 C.ar   64  TYR64       0.0417
     34  CE2       -3.4820   14.6230   29.0190 C.ar   64  TYR64       0.0417
     35  CZ        -4.3220   14.9530   27.9770 C.ar   64  TYR64       0.1957
     36  OH        -4.0050   16.0180   27.1730 O.3    64  TYR64      -0.2866
     37  N         -8.2110   10.4640   36.0460 N.3    74  TYR74      -0.1241
     38  CA        -8.9720   11.5310   36.6790 C.3    74  TYR74       0.1605
     39  C        -10.2540   10.9340   37.2200 C.2    74  TYR74       0.2264
     40  O        -10.9140   10.1790   36.5210 O.2    74  TYR74      -0.2867
     41  CB        -9.3690   12.6040   35.6570 C.3    74  TYR74       0.0534
     42  CG        -8.2300   13.4360   35.1380 C.ar   74  TYR74      -0.0201
     43  CD1       -7.2700   12.8850   34.3010 C.ar   74  TYR74      -0.0009
     44  CD2       -8.1240   14.7850   35.4680 C.ar   74  TYR74      -0.0009
     45  CE1       -6.2380   13.6500   33.8130 C.ar   74  TYR74       0.0417
     46  CE2       -7.0880   15.5550   34.9790 C.ar   74  TYR74       0.0417
     47  CZ        -6.1510   14.9790   34.1630 C.ar   74  TYR74       0.1957
     48  OH        -5.1190   15.7420   33.6760 O.3    74  TYR74      -0.2866
     49  N         -6.7860   14.2020   39.8690 N.3    79  LYS79      -0.1245
     50  CA        -5.9850   13.2740   39.0770 C.3    79  LYS79       0.1561
     51  C         -4.8640   12.6220   39.8700 C.2    79  LYS79       0.2260
     52  O         -4.3330   13.2020   40.8340 O.2    79  LYS79      -0.2867
     53  CB        -5.3910   13.9810   37.8620 C.3    79  LYS79       0.0271
     54  CG        -4.2920   14.9450   38.2050 C.3    79  LYS79       0.0035
     55  CD        -3.7680   15.6490   36.9540 C.3    79  LYS79       0.0206
     56  CE        -3.0860   14.6710   36.0130 C.3    79  LYS79       0.1093
     57  NZ        -2.5350   15.3520   34.8020 N.3    79  LYS79      -0.1314
     58  N        -10.8690   13.8550   23.6490 N.3   136  GLU136     -0.1245
     59  CA       -11.0390   14.2170   25.0470 C.3   136  GLU136      0.1567
     60  C        -12.2090   15.1950   25.1080 C.2   136  GLU136      0.2260
     61  O        -12.1760   16.2270   24.4410 O.2   136  GLU136     -0.2867
     62  CB        -9.7660   14.9040   25.5450 C.3   136  GLU136      0.0388
     63  CG        -9.5440   14.7990   27.0460 C.3   136  GLU136      0.1160
     64  CD       -10.4030   15.7650   27.8320 C.2   136  GLU136      0.3649
     65  OE1      -10.4740   16.9410   27.4370 O.co2 136  GLU136     -0.2457
     66  OE2      -11.0000   15.3640   28.8460 O.co2 136  GLU136     -0.2457
     67  N        -14.6050   18.1430   26.6630 N.3   138  ASP138     -0.1239
     68  CA       -14.6730   19.2340   27.6440 C.3   138  ASP138      0.1674
     69  C        -16.1170   19.6480   27.9320 C.2   138  ASP138      0.2266
     70  O        -16.3670   20.5120   28.7820 O.2   138  ASP138     -0.2867
     71  CB       -13.8570   20.4480   27.1850 C.3   138  ASP138      0.1410
     72  CG       -12.3620   20.2550   27.3610 C.2   138  ASP138      0.3668
     73  OD1      -11.9450   19.3810   28.1590 O.co2 138  ASP138     -0.2456
     74  OD2      -11.5850   20.9730   26.7010 O.co2 138  ASP138     -0.2456
     75  N        -10.6180   18.5430   21.4130 N.3   145  ASP145     -0.1239
     76  CA        -9.3810   19.2960   21.2390 C.3   145  ASP145      0.1674
     77  C         -8.4610   18.4430   20.3920 C.2   145  ASP145      0.2266
     78  O         -8.0200   17.3770   20.8230 O.2   145  ASP145     -0.2867
     79  CB        -8.7530   19.5740   22.6200 C.3   145  ASP145      0.1410
     80  CG        -7.4450   20.3650   22.5500 C.2   145  ASP145      0.3668
     81  OD1       -6.8340   20.5040   21.4680 O.co2 145  ASP145     -0.2456
     82  OD2       -7.0050   20.8350   23.6230 O.co2 145  ASP145     -0.2456
     83  N         -5.3980   16.8190   21.7720 N.3   148  GLN148     -0.1245
     84  CA        -5.5730   15.7170   22.7070 C.3   148  GLN148      0.1566
     85  C         -6.2190   14.4970   22.0480 C.2   148  GLN148      0.2260
     86  O         -6.5380   13.5170   22.7300 O.2   148  GLN148     -0.2867
     87  CB        -6.4570   16.1670   23.8730 C.3   148  GLN148      0.0367
     88  CG        -5.9030   17.3660   24.6360 C.3   148  GLN148      0.0905
     89  CD        -6.8500   17.8090   25.7340 C.2   148  GLN148      0.2608
     90  OE1       -8.0440   17.9810   25.5050 O.2   148  GLN148     -0.2717
     91  NE2       -6.3160   18.0150   26.9280 N.am  148  GLN148     -0.0878
@<TRIPOS>BOND
     1    77    78    2
     2    77    76    1
     3    76    75    1
     4    76    79    1
     5    81    80   ar
     6    83    84    1
     7    85    84    1
     8    85    86    2
     9    80    79    1
    10    80    82   ar
    11    84    87    1
    12    58    59    1
    13    87    88    1
    14    61    60    2
    15    88    89    1
    16    59    60    1
    17    59    62    1
    18    90    89    2
    19    62    63    1
    20    89    91   am
    21    67    68    1
    22    74    72   ar
    23    63    64    1
    24    36    35    1
    25    71    72    1
    26    71    68    1
    27    72    73   ar
    28    65    64   ar
    29    68    69    1
    30    33    35   ar
    31    33    31   ar
    32    64    66   ar
    33    69    70    2
    34    35    34   ar
    35    31    30   ar
    36    34    32   ar
    37    30    32   ar
    38    30    29    1
    39    23    22    1
    40    26    27    1
    41    26    29    1
    42    26    25    1
    43    27    28    2
    44     7     6   ar
    45    22    24    1
    46    22    21    1
    47     6     8   ar
    48     6     5    1
    49    15    14    2
    50    21    18    1
    51    18    19    1
    52    18    17    1
    53    19    20    2
    54     5     2    1
    55    14    16   am
    56    14    13    1
    57     9    10    1
    58     9     3   am
    59     2     3    1
    60     2     1    1
    61    10    13    1
    62    10    11    1
    63     3     4    2
    64    48    47    1
    65    45    47   ar
    66    45    43   ar
    67    47    46   ar
    68    43    42   ar
    69    11    12    2
    70    57    56    1
    71    46    44   ar
    72    42    44   ar
    73    42    41    1
    74    41    38    1
    75    56    55    1
    76    37    38    1
    77    40    39    2
    78    38    39    1
    79    55    54    1
    80    53    54    1
    81    53    50    1
    82    50    49    1
    83    50    51    1
    84    51    52    2
