@<TRIPOS>MOLECULE
tmp/2w09A01.pdb
 133 127 0 0 0
SMALL
GASTEIGER

@<TRIPOS>ATOM
      1  N        -22.8180   -7.2050   76.8850 N.3    69  GLN69      -0.1231
      2  CA       -21.8330   -6.4990   76.1100 C.3    69  GLN69       0.1698
      3  C        -22.0290   -4.9860   76.1270 C.2    69  GLN69       0.2592
      4  O        -21.1020   -4.2300   76.3560 O.2    69  GLN69      -0.2718
      5  CB       -21.8450   -7.0000   74.6740 C.3    69  GLN69       0.0381
      6  CG       -20.8070   -6.3140   73.8290 C.3    69  GLN69       0.0905
      7  CD       -21.0910   -6.4860   72.3660 C.2    69  GLN69       0.2608
      8  OE1      -22.2400   -6.6720   71.9720 O.2    69  GLN69      -0.2717
      9  NE2      -20.0440   -6.4460   71.5500 N.am   69  GLN69      -0.0878
     10  N        -23.2570   -4.5440   75.8910 N.am   70  ALA70      -0.1980
     11  CA       -23.5290   -3.1120   75.7850 C.3    70  ALA70       0.1597
     12  C        -23.1540   -2.2830   77.0150 C.2    70  ALA70       0.2287
     13  O        -22.6430   -1.1700   76.9000 O.2    70  ALA70      -0.2864
     14  CB       -24.9910   -2.9030   75.4520 C.3    70  ALA70       0.0319
     15  N        -19.4730   -0.7610   77.4840 N.3    73  TYR73      -0.1241
     16  CA       -18.9730    0.2990   76.6260 C.3    73  TYR73       0.1605
     17  C        -19.6670    1.6540   76.8450 C.2    73  TYR73       0.2264
     18  O        -19.9960    2.3450   75.8810 O.2    73  TYR73      -0.2867
     19  CB       -19.0900   -0.1340   75.1530 C.3    73  TYR73       0.0534
     20  CG       -18.2140   -1.3450   74.8150 C.ar   73  TYR73      -0.0201
     21  CD1      -16.9060   -1.1830   74.3830 C.ar   73  TYR73      -0.0009
     22  CD2      -18.7000   -2.6330   74.9570 C.ar   73  TYR73      -0.0009
     23  CE1      -16.0970   -2.2790   74.0890 C.ar   73  TYR73       0.0417
     24  CE2      -17.9050   -3.7220   74.6690 C.ar   73  TYR73       0.0417
     25  CZ       -16.6060   -3.5340   74.2370 C.ar   73  TYR73       0.1957
     26  OH       -15.8340   -4.6550   73.9620 O.3    73  TYR73      -0.2866
     27  N        -18.3590    4.4100   77.6310 N.3    75  PHE75      -0.1227
     28  CA       -17.5260    5.4740   77.0240 C.3    75  PHE75       0.1736
     29  C        -17.7700    5.7620   75.5210 C.2    75  PHE75       0.2595
     30  O        -17.2110    6.7130   74.9510 O.2    75  PHE75      -0.2718
     31  CB       -16.0470    5.1930   77.2610 C.3    75  PHE75       0.0547
     32  CG       -15.6110    3.8170   76.8370 C.ar   75  PHE75      -0.0202
     33  CD1      -15.2290    3.5760   75.5230 C.ar   75  PHE75      -0.0042
     34  CD2      -15.5620    2.7680   77.7580 C.ar   75  PHE75      -0.0042
     35  CE1      -14.8170    2.3160   75.1270 C.ar   75  PHE75      -0.0003
     36  CE2      -15.1580    1.5020   77.3700 C.ar   75  PHE75      -0.0003
     37  CZ       -14.7770    1.2750   76.0550 C.ar   75  PHE75      -0.0000
     38  N        -18.5930    4.9520   74.8680 N.am   76  MET76      -0.1979
     39  CA       -18.9060    5.2420   73.4570 C.3    76  MET76       0.1605
     40  C        -20.0120    6.2850   73.3440 C.2    76  MET76       0.2287
     41  O        -20.3040    6.7700   72.2620 O.2    76  MET76      -0.2864
     42  CB       -19.3180    3.9630   72.7200 C.3    76  MET76       0.0413
     43  CG       -18.2170    2.9410   72.5900 C.3    76  MET76       0.0598
     44  SD       -16.8390    3.5790   71.6540 S.3    76  MET76      -0.1393
     45  CE       -17.5410    3.7130   70.0140 C.3    76  MET76       0.0692
     46  N        -20.9960    8.4030   69.8580 N.3    80  PHE80      -0.1241
     47  CA       -22.2750    8.2840   69.1570 C.3    80  PHE80       0.1605
     48  C        -23.2290    9.4370   69.4730 C.2    80  PHE80       0.2264
     49  O        -23.9630    9.8900   68.6010 O.2    80  PHE80      -0.2867
     50  CB       -22.9840    6.9640   69.4610 C.3    80  PHE80       0.0534
     51  CG       -22.1630    5.7280   69.1460 C.ar   80  PHE80      -0.0203
     52  CD1      -21.2110    5.7340   68.1320 C.ar   80  PHE80      -0.0042
     53  CD2      -22.3850    4.5520   69.8400 C.ar   80  PHE80      -0.0042
     54  CE1      -20.4790    4.6020   67.8380 C.ar   80  PHE80      -0.0003
     55  CE2      -21.6570    3.4210   69.5440 C.ar   80  PHE80      -0.0003
     56  CZ       -20.6980    3.4480   68.5390 C.ar   80  PHE80      -0.0000
     57  N        -10.7540    7.6460   72.5300 N.3   157  THR157     -0.1218
     58  CA       -11.0150    6.4170   73.2750 C.3   157  THR157      0.1862
     59  C         -9.8380    6.0290   74.1920 C.2   157  THR157      0.2287
     60  O         -9.5570    4.8190   74.4000 O.2   157  THR157     -0.2866
     61  CB       -11.2880    5.2410   72.2990 C.3   157  THR157      0.1770
     62  OG1      -10.2090    5.1650   71.3500 O.3   157  THR157     -0.2211
     63  CG2      -12.6200    5.4600   71.5550 C.3   157  THR157      0.0375
     64  N        -19.0570    3.0120   62.5220 N.3   227  PHE227     -0.1227
     65  CA       -17.9330    2.8900   63.4580 C.3   227  PHE227      0.1736
     66  C        -17.2720    1.5130   63.4700 C.2   227  PHE227      0.2595
     67  O        -16.0610    1.3980   63.3660 O.2   227  PHE227     -0.2718
     68  CB       -18.3460    3.2720   64.8860 C.3   227  PHE227      0.0547
     69  CG       -17.1730    3.6700   65.7430 C.ar  227  PHE227     -0.0202
     70  CD1      -16.4270    2.7080   66.4100 C.ar  227  PHE227     -0.0042
     71  CD2      -16.7600    4.9930   65.8150 C.ar  227  PHE227     -0.0042
     72  CE1      -15.3280    3.0690   67.1760 C.ar  227  PHE227     -0.0003
     73  CE2      -15.6650    5.3580   66.5710 C.ar  227  PHE227     -0.0003
     74  CZ       -14.9510    4.3920   67.2620 C.ar  227  PHE227     -0.0000
     75  N        -18.0940    0.4850   63.6020 N.am  228  ALA228     -0.1980
     76  CA       -17.5920   -0.8770   63.7920 C.3   228  ALA228      0.1597
     77  C        -16.6830   -1.2600   62.6410 C.2   228  ALA228      0.2287
     78  O        -15.6090   -1.8580   62.8320 O.2   228  ALA228     -0.2864
     79  CB       -18.7620   -1.8170   63.9090 C.3   228  ALA228      0.0319
     80  N        -12.3620    1.4930   61.5480 N.3   231  HIS231     -0.1226
     81  CA       -10.9610    1.3410   61.9140 C.3   231  HIS231      0.1752
     82  C        -10.5020   -0.0850   61.7560 C.2   231  HIS231      0.2596
     83  O         -9.3120   -0.3260   61.5670 O.2   231  HIS231     -0.2718
     84  CB       -10.6610    1.8030   63.3600 C.3   231  HIS231      0.0759
     85  CG       -11.2510    0.9360   64.4330 C.ar  231  HIS231      0.0818
     86  ND1      -10.5110   -0.0190   65.1030 N.ar  231  HIS231     -0.2268
     87  CD2      -12.5000    0.8830   64.9590 C.ar  231  HIS231      0.1154
     88  CE1      -11.2760   -0.6180   65.9930 C.ar  231  HIS231      0.1986
     89  NE2      -12.4840   -0.0870   65.9330 N.ar  231  HIS231     -0.2212
     90  N        -11.4400   -1.0100   61.9090 N.am  232  THR232     -0.1953
     91  CA       -11.1370   -2.4370   61.7520 C.3   232  THR232      0.1897
     92  C        -10.7310   -2.7360   60.2900 C.2   232  THR232      0.2313
     93  O         -9.6850   -3.3320   60.0090 O.2   232  THR232     -0.2863
     94  CB       -12.3530   -3.2830   62.1460 C.3   232  THR232      0.1794
     95  OG1      -13.5110   -2.8110   61.4390 O.3   232  THR232     -0.2208
     96  CG2      -12.6100   -3.2070   63.6870 C.3   232  THR232      0.0378
     97  N         -9.4170   -5.6720   67.0330 N.3   293  LEU293     -0.1245
     98  CA        -9.9800   -5.6140   68.4000 C.3   293  LEU293      0.1561
     99  C         -9.1370   -6.5400   69.2630 C.2   293  LEU293      0.2260
    100  O         -9.1570   -7.7650   69.0790 O.2   293  LEU293     -0.2867
    101  CB       -11.4710   -5.9800   68.4500 C.3   293  LEU293      0.0270
    102  CG       -12.4310   -5.3000   67.4430 C.3   293  LEU293      0.0019
    103  CD1      -13.8630   -5.6950   67.7450 C.3   293  LEU293      0.0001
    104  CD2      -12.2500   -3.8010   67.4460 C.3   293  LEU293      0.0001
    105  N         -9.0630   -6.5980   72.7010 N.3   295  ILE295     -0.1245
    106  CA        -9.7650   -7.0450   73.9190 C.3   295  ILE295      0.1561
    107  C        -11.2570   -6.8220   73.6600 C.2   295  ILE295      0.2260
    108  O        -11.6290   -5.8520   72.9710 O.2   295  ILE295     -0.2867
    109  CB        -9.2520   -6.2520   75.1800 C.3   295  ILE295      0.0252
    110  CG1       -9.8010   -6.8360   76.4890 C.3   295  ILE295      0.0019
    111  CG2       -9.5900   -4.7690   75.0590 C.3   295  ILE295      0.0019
    112  CD1       -9.1840   -6.2090   77.7500 C.3   295  ILE295      0.0001
    113  N        -18.8370  -11.7190   64.6740 N.3   366  CYS366     -0.1235
    114  CA       -18.9470  -10.5590   63.7970 C.3   366  CYS366      0.1677
    115  C        -19.9200  -10.7490   62.6510 C.2   366  CYS366      0.2270
    116  O        -19.7340  -11.6120   61.7930 O.2   366  CYS366     -0.2867
    117  CB       -17.5860  -10.1630   63.2330 C.3   366  CYS366      0.0956
    118  SG       -17.6850   -8.6380   62.3100 S.3   366  CYS366     -0.0801
    119  N         -8.1590    2.9360   73.0120 N.3   405  MET405     -0.1230
    120  CA        -8.8740    1.6760   72.9580 C.3   405  MET405      0.1702
    121  C         -9.1390    1.2610   71.5150 C.2   405  MET405      0.2592
    122  O         -9.1990    0.0710   71.2090 O.2   405  MET405     -0.2718
    123  CB       -10.1770    1.7720   73.7420 C.3   405  MET405      0.0401
    124  CG        -9.9650    1.7360   75.2390 C.3   405  MET405      0.0596
    125  SD        -9.4260    0.1180   75.7970 S.3   405  MET405     -0.1393
    126  CE       -10.9180   -0.8470   75.5400 C.3   405  MET405      0.0692
    127  N         -9.3100    2.2480   70.6390 N.am  406  VAL406     -0.1980
    128  CA        -9.3790    1.9720   69.1920 C.3   406  VAL406      0.1595
    129  C         -7.9660    1.9050   68.6480 C.2   406  VAL406      0.2287
    130  O         -7.2340    2.9120   68.6010 O.2   406  VAL406     -0.2864
    131  CB       -10.1690    3.0670   68.4260 C.3   406  VAL406      0.0276
    132  CG1      -10.0370    2.8500   66.9060 C.3   406  VAL406      0.0022
    133  CG2      -11.6250    3.0770   68.8870 C.3   406  VAL406      0.0022
@<TRIPOS>BOND
     1    93    92    2
     2    92    91    1
     3    95    94    1
     4    80    81    1
     5    83    82    2
     6    91    90    1
     7    91    94    1
     8    82    90   am
     9    82    81    1
    10   116   115    2
    11    81    84    1
    12    94    96    1
    13   118   117    1
    14    64    65    1
    15    77    78    2
    16    77    76    1
    17   115   114    1
    18   117   114    1
    19    84    85    1
    20    67    66    2
    21    65    66    1
    22    65    68    1
    23    66    75   am
    24    75    76    1
    25    76    79    1
    26   114   113    1
    27    85    87   ar
    28    85    86   ar
    29    68    69    1
    30    87    89   ar
    31    86    88   ar
    32    69    71   ar
    33    69    70   ar
    34    71    73   ar
    35    89    88   ar
    36    70    72   ar
    37    73    74   ar
    38   132   131    1
    39    97    98    1
    40    72    74   ar
    41   102   104    1
    42   102   103    1
    43   102   101    1
    44    54    52   ar
    45    54    56   ar
    46    52    51   ar
    47    98   101    1
    48    98    99    1
    49   131   133    1
    50   131   128    1
    51    56    55   ar
    52    49    48    2
    53   130   129    2
    54   129   128    1
    55   100    99    2
    56    51    50    1
    57    51    53   ar
    58    47    50    1
    59    47    48    1
    60    47    46    1
    61   128   127    1
    62    55    53   ar
    63    45    44    1
    64   127   121   am
    65   122   121    2
    66    62    61    1
    67   121   120    1
    68     9     7   am
    69    63    61    1
    70    44    43    1
    71     8     7    2
    72    41    40    2
    73    61    58    1
    74     7     6    1
    75    57    58    1
    76    43    42    1
    77   105   106    1
    78    42    39    1
    79   120   119    1
    80   120   123    1
    81   108   107    2
    82    58    59    1
    83    40    39    1
    84    39    38    1
    85   107   106    1
    86   123   124    1
    87     6     5    1
    88   106   109    1
    89    26    25    1
    90    23    25   ar
    91    23    21   ar
    92    59    60    2
    93    25    24   ar
    94    21    20   ar
    95    24    22   ar
    96     5     2    1
    97    20    22   ar
    98    20    19    1
    99    38    29   am
   100    30    29    2
   101   111   109    1
   102    35    33   ar
   103    35    37   ar
   104    19    16    1
   105   109   110    1
   106   124   125    1
   107    14    11    1
   108    29    28    1
   109    33    32   ar
   110   126   125    1
   111    11    10    1
   112    11    12    1
   113    18    17    2
   114    10     3   am
   115    37    36   ar
   116     2     3    1
   117     2     1    1
   118     3     4    2
   119   110   112    1
   120    16    17    1
   121    16    15    1
   122    32    31    1
   123    32    34   ar
   124    13    12    2
   125    28    31    1
   126    28    27    1
   127    36    34   ar
