@<TRIPOS>MOLECULE
tmp/2w0aA01.pdb
 145 140 0 0 0
SMALL
GASTEIGER

@<TRIPOS>ATOM
      1  N        -21.9760   -6.5360   77.1230 N.3    70  GLN70      -0.1231
      2  CA       -21.0150   -5.8760   76.2580 C.3    70  GLN70       0.1698
      3  C        -21.0810   -4.3390   76.3410 C.2    70  GLN70       0.2592
      4  O        -20.0990   -3.6850   76.6430 O.2    70  GLN70      -0.2718
      5  CB       -21.2520   -6.3410   74.8250 C.3    70  GLN70       0.0381
      6  CG       -20.2460   -5.8110   73.8360 C.3    70  GLN70       0.0905
      7  CD       -20.5640   -6.2580   72.4290 C.2    70  GLN70       0.2608
      8  OE1      -21.7300   -6.2590   72.0020 O.2    70  GLN70      -0.2717
      9  NE2      -19.5310   -6.6400   71.6920 N.am   70  GLN70      -0.0878
     10  N        -22.2400   -3.7650   76.0550 N.am   71  ALA71      -0.1980
     11  CA       -22.3430   -2.3180   75.9640 C.3    71  ALA71       0.1597
     12  C        -21.9390   -1.5630   77.2380 C.2    71  ALA71       0.2287
     13  O        -21.4140   -0.4340   77.1630 O.2    71  ALA71      -0.2864
     14  CB       -23.7530   -1.9210   75.5280 C.3    71  ALA71       0.0319
     15  N        -18.2600   -0.3360   77.6530 N.3    74  TYR74      -0.1241
     16  CA       -17.7470    0.6830   76.7060 C.3    74  TYR74       0.1605
     17  C        -18.3380    2.0790   76.9510 C.2    74  TYR74       0.2264
     18  O        -18.7720    2.7780   76.0140 O.2    74  TYR74      -0.2867
     19  CB       -17.9880    0.2380   75.2530 C.3    74  TYR74       0.0534
     20  CG       -17.1470   -0.9760   74.8700 C.ar   74  TYR74      -0.0201
     21  CD1      -15.8490   -0.8160   74.3900 C.ar   74  TYR74      -0.0009
     22  CD2      -17.6400   -2.2710   75.0350 C.ar   74  TYR74      -0.0009
     23  CE1      -15.0570   -1.9120   74.0550 C.ar   74  TYR74       0.0417
     24  CE2      -16.8540   -3.3970   74.6800 C.ar   74  TYR74       0.0417
     25  CZ       -15.5670   -3.2010   74.2230 C.ar   74  TYR74       0.1957
     26  OH       -14.7960   -4.2960   73.8890 O.3    74  TYR74      -0.2866
     27  N        -17.0490    4.8150   77.5030 N.3    76  PHE76      -0.1227
     28  CA       -16.2730    5.8530   76.8390 C.3    76  PHE76       0.1736
     29  C        -16.6840    6.1380   75.3760 C.2    76  PHE76       0.2595
     30  O        -16.2160    7.0990   74.7470 O.2    76  PHE76      -0.2718
     31  CB       -14.7770    5.5220   76.9350 C.3    76  PHE76       0.0547
     32  CG       -14.3750    4.2940   76.1530 C.ar   76  PHE76      -0.0202
     33  CD1      -14.1290    4.3780   74.7830 C.ar   76  PHE76      -0.0042
     34  CD2      -14.2420    3.0580   76.7810 C.ar   76  PHE76      -0.0042
     35  CE1      -13.7580    3.2490   74.0420 C.ar   76  PHE76      -0.0003
     36  CE2      -13.8690    1.9150   76.0470 C.ar   76  PHE76      -0.0003
     37  CZ       -13.6210    2.0140   74.6760 C.ar   76  PHE76      -0.0000
     38  N        -17.5660    5.3080   74.8270 N.am   77  MET77      -0.1979
     39  CA       -18.0380    5.5280   73.4530 C.3    77  MET77       0.1605
     40  C        -19.1550    6.5840   73.4230 C.2    77  MET77       0.2287
     41  O        -19.4940    7.1020   72.3830 O.2    77  MET77      -0.2864
     42  CB       -18.5050    4.2140   72.8120 C.3    77  MET77       0.0413
     43  CG       -17.3750    3.2170   72.5190 C.3    77  MET77       0.0598
     44  SD       -16.1560    3.9440   71.4390 S.3    77  MET77      -0.1393
     45  CE       -17.0890    4.0800   69.8970 C.3    77  MET77       0.0692
     46  N        -20.2260    8.6880   69.9680 N.3    81  PHE81      -0.1241
     47  CA       -21.5130    8.5920   69.2880 C.3    81  PHE81       0.1605
     48  C        -22.3980    9.8080   69.5890 C.2    81  PHE81       0.2264
     49  O        -23.1020   10.3330   68.7130 O.2    81  PHE81      -0.2867
     50  CB       -22.2250    7.3210   69.7290 C.3    81  PHE81       0.0534
     51  CG       -21.4930    6.0440   69.3820 C.ar   81  PHE81      -0.0203
     52  CD1      -20.6530    5.9520   68.2590 C.ar   81  PHE81      -0.0042
     53  CD2      -21.6910    4.9200   70.1540 C.ar   81  PHE81      -0.0042
     54  CE1      -20.0180    4.7610   67.9610 C.ar   81  PHE81      -0.0003
     55  CE2      -21.0680    3.7320   69.8520 C.ar   81  PHE81      -0.0003
     56  CZ       -20.2350    3.6430   68.7470 C.ar   81  PHE81      -0.0000
     57  N        -26.7510    3.0590   72.8800 N.3    87  PHE87      -0.1241
     58  CA       -26.2140    1.7560   72.5130 C.3    87  PHE87       0.1605
     59  C        -26.1750    0.7670   73.6740 C.2    87  PHE87       0.2264
     60  O        -26.5260    1.1070   74.8100 O.2    87  PHE87      -0.2867
     61  CB       -24.8050    1.9340   71.9570 C.3    87  PHE87       0.0534
     62  CG       -23.8280    2.4800   72.9580 C.ar   87  PHE87      -0.0203
     63  CD1      -23.1760    1.6320   73.8420 C.ar   87  PHE87      -0.0042
     64  CD2      -23.5620    3.8470   73.0260 C.ar   87  PHE87      -0.0042
     65  CE1      -22.2640    2.1340   74.7670 C.ar   87  PHE87      -0.0003
     66  CE2      -22.6530    4.3570   73.9590 C.ar   87  PHE87      -0.0003
     67  CZ       -21.9970    3.4940   74.8260 C.ar   87  PHE87      -0.0000
     68  N        -18.4370    3.2330   62.6310 N.3   230  PHE230     -0.1227
     69  CA       -17.3180    3.0500   63.5690 C.3   230  PHE230      0.1736
     70  C        -16.7000    1.6620   63.5650 C.2   230  PHE230      0.2595
     71  O        -15.4550    1.5340   63.4710 O.2   230  PHE230     -0.2718
     72  CB       -17.6950    3.4820   64.9930 C.3   230  PHE230      0.0547
     73  CG       -16.5040    3.8730   65.8290 C.ar  230  PHE230     -0.0202
     74  CD1      -15.7800    2.9140   66.5250 C.ar  230  PHE230     -0.0042
     75  CD2      -16.0710    5.1890   65.8600 C.ar  230  PHE230     -0.0042
     76  CE1      -14.6790    3.2900   67.3020 C.ar  230  PHE230     -0.0003
     77  CE2      -14.9590    5.5710   66.6170 C.ar  230  PHE230     -0.0003
     78  CZ       -14.2670    4.6130   67.3520 C.ar  230  PHE230     -0.0000
     79  N        -17.5450    0.6340   63.6480 N.am  231  ALA231     -0.1980
     80  CA       -17.0400   -0.7310   63.8510 C.3   231  ALA231      0.1597
     81  C        -16.1210   -1.1070   62.7180 C.2   231  ALA231      0.2287
     82  O        -15.0300   -1.6980   62.9370 O.2   231  ALA231     -0.2864
     83  CB       -18.1850   -1.7340   63.9580 C.3   231  ALA231      0.0319
     84  N        -11.7470    1.6790   61.5820 N.3   234  HIS234     -0.1226
     85  CA       -10.3320    1.4390   61.9690 C.3   234  HIS234      0.1752
     86  C         -9.9340    0.0020   61.7940 C.2   234  HIS234      0.2596
     87  O         -8.7530   -0.2850   61.5690 O.2   234  HIS234     -0.2718
     88  CB       -10.0550    1.9020   63.4080 C.3   234  HIS234      0.0759
     89  CG       -10.6240    1.0090   64.4740 C.ar  234  HIS234      0.0818
     90  ND1       -9.8690    0.0800   65.1610 N.ar  234  HIS234     -0.2268
     91  CD2      -11.8790    0.9100   64.9570 C.ar  234  HIS234      0.1154
     92  CE1      -10.6440   -0.5490   66.0290 C.ar  234  HIS234      0.1986
     93  NE2      -11.8750   -0.0700   65.9140 N.ar  234  HIS234     -0.2212
     94  N        -10.9030   -0.9060   61.8800 N.am  235  THR235     -0.1953
     95  CA       -10.5930   -2.3290   61.7530 C.3   235  THR235      0.1897
     96  C        -10.1750   -2.6340   60.3050 C.2   235  THR235      0.2313
     97  O         -9.1090   -3.2000   60.0400 O.2   235  THR235     -0.2863
     98  CB       -11.8190   -3.1440   62.1500 C.3   235  THR235      0.1794
     99  OG1      -12.9720   -2.5970   61.4860 O.3   235  THR235     -0.2208
    100  CG2      -12.0050   -3.0650   63.7140 C.3   235  THR235      0.0378
    101  N         -8.8700   -5.4960   67.0120 N.3   296  LEU296     -0.1245
    102  CA        -9.3610   -5.4550   68.3970 C.3   296  LEU296      0.1561
    103  C         -8.4830   -6.3680   69.2380 C.2   296  LEU296      0.2260
    104  O         -8.5150   -7.5940   69.0700 O.2   296  LEU296     -0.2867
    105  CB       -10.7990   -5.9340   68.4710 C.3   296  LEU296      0.0270
    106  CG       -11.8670   -4.8960   68.1920 C.3   296  LEU296      0.0019
    107  CD1      -11.5120   -3.9260   67.1060 C.3   296  LEU296      0.0001
    108  CD2      -13.2270   -5.5280   67.9380 C.3   296  LEU296      0.0001
    109  N         -8.4220   -6.5150   72.6330 N.3   298  ILE298     -0.1231
    110  CA        -9.1190   -6.9150   73.8620 C.3   298  ILE298      0.1692
    111  C        -10.6130   -6.6830   73.6410 C.2   298  ILE298      0.2591
    112  O        -10.9910   -5.7980   72.8740 O.2   298  ILE298     -0.2718
    113  CB        -8.6010   -6.0820   75.0650 C.3   298  ILE298      0.0266
    114  CG1       -9.1310   -6.6440   76.3780 C.3   298  ILE298      0.0019
    115  CG2       -8.9430   -4.5920   74.8960 C.3   298  ILE298      0.0020
    116  CD1       -8.3940   -6.0500   77.6150 C.3   298  ILE298      0.0001
    117  N        -11.4400   -7.5360   74.2540 N.am  299  LEU299     -0.1980
    118  CA       -12.9010   -7.4870   74.1360 C.3   299  LEU299      0.1596
    119  C        -13.4330   -7.4770   75.5440 C.2   299  LEU299      0.2287
    120  O        -13.1030   -8.3580   76.3440 O.2   299  LEU299     -0.2864
    121  CB       -13.4110   -8.7460   73.4240 C.3   299  LEU299      0.0297
    122  CG       -12.7470   -9.0200   72.0640 C.3   299  LEU299      0.0022
    123  CD1      -13.2080  -10.3970   71.4700 C.3   299  LEU299      0.0001
    124  CD2      -12.9440   -7.8630   71.0790 C.3   299  LEU299      0.0001
    125  N        -18.2910  -11.7880   64.5860 N.3   369  CYS369     -0.1235
    126  CA       -18.4020  -10.5440   63.8570 C.3   369  CYS369      0.1677
    127  C        -19.4040  -10.6420   62.7090 C.2   369  CYS369      0.2270
    128  O        -19.1740  -11.3980   61.7590 O.2   369  CYS369     -0.2867
    129  CB       -17.0410  -10.1230   63.2930 C.3   369  CYS369      0.0956
    130  SG       -17.1060   -8.5310   62.4180 S.3   369  CYS369     -0.0801
    131  N         -7.6310    2.8030   73.0480 N.3   408  MET408     -0.1230
    132  CA        -8.4180    1.6030   72.9200 C.3   408  MET408      0.1702
    133  C         -8.6420    1.3040   71.4310 C.2   408  MET408      0.2592
    134  O         -8.7360    0.1280   71.0600 O.2   408  MET408     -0.2718
    135  CB        -9.7430    1.7090   73.6960 C.3   408  MET408      0.0401
    136  CG        -9.6040    1.6840   75.2470 C.3   408  MET408      0.0596
    137  SD        -9.2170    0.0570   76.0210 S.3   408  MET408     -0.1393
    138  CE       -10.5900   -1.0520   75.6100 C.3   408  MET408      0.0692
    139  N         -8.6880    2.3410   70.5810 N.am  409  VAL409     -0.1980
    140  CA        -8.7720    2.1170   69.1430 C.3   409  VAL409      0.1595
    141  C         -7.3560    2.0010   68.5870 C.2   409  VAL409      0.2287
    142  O         -6.6050    2.9760   68.5880 O.2   409  VAL409     -0.2864
    143  CB        -9.5450    3.2260   68.3870 C.3   409  VAL409      0.0276
    144  CG1       -9.4010    3.0340   66.8800 C.3   409  VAL409      0.0022
    145  CG2      -11.0140    3.2060   68.8140 C.3   409  VAL409      0.0022
@<TRIPOS>BOND
     1    97    96    2
     2    96    95    1
     3    99    98    1
     4    87    86    2
     5    84    85    1
     6    95    94    1
     7    95    98    1
     8   128   127    2
     9    86    94   am
    10    86    85    1
    11    85    88    1
    12    98   100    1
    13   130   129    1
    14    68    69    1
    15   127   126    1
    16    81    82    2
    17    81    80    1
    18   129   126    1
    19    88    89    1
    20    71    70    2
    21    70    69    1
    22    70    79   am
    23    69    72    1
    24    79    80    1
    25    80    83    1
    26   126   125    1
    27    89    91   ar
    28    89    90   ar
    29    91    93   ar
    30    72    73    1
    31    90    92   ar
    32    73    75   ar
    33    73    74   ar
    34    75    77   ar
    35    93    92   ar
    36    74    76   ar
    37    77    78   ar
    38   144   143    1
    39   101   102    1
    40   107   106    1
    41    76    78   ar
    42   108   106    1
    43    54    52   ar
    44    54    56   ar
    45   106   105    1
    46    52    51   ar
    47   143   145    1
    48   143   140    1
    49   102   105    1
    50   102   103    1
    51   141   142    2
    52   141   140    1
    53    49    48    2
    54    56    55   ar
    55   104   103    2
    56   140   139    1
    57    47    48    1
    58    47    50    1
    59    47    46    1
    60    51    50    1
    61    51    53   ar
    62    55    53   ar
    63    45    44    1
    64   139   133   am
    65   134   133    2
    66   124   122    1
    67   133   132    1
    68    44    43    1
    69   123   122    1
    70     9     7   am
    71    61    58    1
    72    61    62    1
    73     8     7    2
    74   122   121    1
    75    41    40    2
    76     7     6    1
    77    58    57    1
    78    58    59    1
    79    43    42    1
    80   109   110    1
    81    42    39    1
    82   112   111    2
    83   132   131    1
    84   132   135    1
    85    62    64   ar
    86    62    63   ar
    87    64    66   ar
    88    40    39    1
    89   121   118    1
    90    39    38    1
    91   111   110    1
    92   111   117   am
    93    59    60    2
    94   135   136    1
    95     6     5    1
    96    63    65   ar
    97   110   113    1
    98    26    25    1
    99    66    67   ar
   100    35    37   ar
   101    35    33   ar
   102    23    25   ar
   103    23    21   ar
   104   118   117    1
   105   118   119    1
   106    25    24   ar
   107    21    20   ar
   108    37    36   ar
   109    24    22   ar
   110    30    29    2
   111    65    67   ar
   112    33    32   ar
   113     5     2    1
   114    38    29   am
   115    20    22   ar
   116    20    19    1
   117   115   113    1
   118   113   114    1
   119   136   137    1
   120    19    16    1
   121    29    28    1
   122    14    11    1
   123   119   120    2
   124   138   137    1
   125    11    10    1
   126    11    12    1
   127    18    17    2
   128    36    34   ar
   129    10     3   am
   130    32    34   ar
   131    32    31    1
   132     2     3    1
   133     2     1    1
   134     3     4    2
   135   114   116    1
   136    16    17    1
   137    16    15    1
   138    28    31    1
   139    28    27    1
   140    13    12    2
