@<TRIPOS>MOLECULE
tmp/2w0bA01.pdb
 156 150 0 0 0
SMALL
GASTEIGER

@<TRIPOS>ATOM
      1  N        -22.8500   -8.1010   76.6360 N.3    70  GLN70      -0.1245
      2  CA       -21.9930   -7.3380   75.7600 C.3    70  GLN70       0.1566
      3  C        -22.4900   -5.8950   75.6060 C.2    70  GLN70       0.2260
      4  O        -21.7150   -4.9800   75.3090 O.2    70  GLN70      -0.2867
      5  CB       -21.9780   -8.0340   74.4080 C.3    70  GLN70       0.0367
      6  CG       -21.1800   -7.3400   73.3380 C.3    70  GLN70       0.0905
      7  CD       -21.6810   -7.6990   71.9480 C.2    70  GLN70       0.2608
      8  OE1      -22.8920   -7.6800   71.6780 O.2    70  GLN70      -0.2717
      9  NE2      -20.7590   -8.0240   71.0590 N.am   70  GLN70      -0.0878
     10  N        -18.7880   -1.8600   76.3810 N.3    74  TYR74      -0.1241
     11  CA       -17.9230   -0.9920   75.5600 C.3    74  TYR74       0.1605
     12  C        -18.3370    0.4760   75.6960 C.2    74  TYR74       0.2264
     13  O        -18.7760    1.1050   74.7250 O.2    74  TYR74      -0.2867
     14  CB       -17.9790   -1.4220   74.0930 C.3    74  TYR74       0.0534
     15  CG       -17.5180   -2.8480   73.8180 C.ar   74  TYR74      -0.0201
     16  CD1      -16.1700   -3.1270   73.5920 C.ar   74  TYR74      -0.0009
     17  CD2      -18.4270   -3.8980   73.7410 C.ar   74  TYR74      -0.0009
     18  CE1      -15.7230   -4.4160   73.3150 C.ar   74  TYR74       0.0417
     19  CE2      -17.9850   -5.2280   73.4620 C.ar   74  TYR74       0.0417
     20  CZ       -16.6210   -5.4540   73.2360 C.ar   74  TYR74       0.1957
     21  OH       -16.1570   -6.7210   72.9670 O.3    74  TYR74      -0.2866
     22  N        -16.9320    3.2500   75.7720 N.3    76  PHE76      -0.1227
     23  CA       -16.3170    4.2520   74.9230 C.3    76  PHE76       0.1736
     24  C        -17.2160    4.5790   73.7360 C.2    76  PHE76       0.2595
     25  O        -17.0390    5.6090   73.0890 O.2    76  PHE76      -0.2718
     26  CB       -14.9030    3.8510   74.4640 C.3    76  PHE76       0.0547
     27  CG       -14.8020    2.4830   73.7980 C.ar   76  PHE76      -0.0202
     28  CD1      -15.0010    2.3470   72.4240 C.ar   76  PHE76      -0.0042
     29  CD2      -14.4070    1.3640   74.5250 C.ar   76  PHE76      -0.0042
     30  CE1      -14.8740    1.0970   71.8050 C.ar   76  PHE76      -0.0003
     31  CE2      -14.2840    0.1250   73.9150 C.ar   76  PHE76      -0.0003
     32  CZ       -14.5210   -0.0080   72.5510 C.ar   76  PHE76      -0.0000
     33  N        -18.1860    3.7080   73.4760 N.am   77  MET77      -0.1979
     34  CA       -19.1230    3.9180   72.3700 C.3    77  MET77       0.1605
     35  C        -20.2330    4.9060   72.7150 C.2    77  MET77       0.2287
     36  O        -20.8330    5.5100   71.8340 O.2    77  MET77      -0.2864
     37  CB       -19.7530    2.5970   71.9490 C.3    77  MET77       0.0413
     38  CG       -18.7490    1.6120   71.3820 C.3    77  MET77       0.0598
     39  SD       -17.8680    2.2290   69.9340 S.3    77  MET77      -0.1393
     40  CE       -19.2330    2.6610   68.8260 C.3    77  MET77       0.0692
     41  N        -22.3820    7.1410   69.8930 N.3    81  PHE81      -0.1241
     42  CA       -23.7880    7.0770   69.5320 C.3    81  PHE81       0.1605
     43  C        -24.4800    8.4000   69.8510 C.2    81  PHE81       0.2264
     44  O        -25.4110    8.8050   69.1590 O.2    81  PHE81      -0.2867
     45  CB       -24.5000    5.9570   70.2840 C.3    81  PHE81       0.0534
     46  CG       -23.8790    4.6030   70.0860 C.ar   81  PHE81      -0.0203
     47  CD1      -23.3010    4.2600   68.8700 C.ar   81  PHE81      -0.0042
     48  CD2      -23.8770    3.6720   71.1180 C.ar   81  PHE81      -0.0042
     49  CE1      -22.7230    3.0060   68.6840 C.ar   81  PHE81      -0.0003
     50  CE2      -23.3090    2.4120   70.9430 C.ar   81  PHE81      -0.0003
     51  CZ       -22.7290    2.0780   69.7240 C.ar   81  PHE81      -0.0000
     52  N        -29.3310   -2.0180   67.1240 N.3    95  LYS95      -0.1245
     53  CA       -28.0610   -2.5490   66.6660 C.3    95  LYS95       0.1561
     54  C        -28.2220   -3.2730   65.3150 C.2    95  LYS95       0.2260
     55  O        -27.4660   -3.0160   64.3700 O.2    95  LYS95      -0.2867
     56  CB       -27.4960   -3.4590   67.7630 C.3    95  LYS95       0.0271
     57  CG       -26.1610   -4.0890   67.4560 C.3    95  LYS95       0.0035
     58  CD       -25.7390   -4.9310   68.6550 C.3    95  LYS95       0.0206
     59  CE       -24.6580   -5.8950   68.2930 C.3    95  LYS95       0.1093
     60  NZ       -24.2890   -6.6550   69.5240 N.3    95  LYS95      -0.1314
     61  N        -28.4520   -0.8910   62.3770 N.3    98  LEU98      -0.1231
     62  CA       -27.2680   -0.1900   61.9250 C.3    98  LEU98       0.1693
     63  C        -26.6800   -0.8600   60.7100 C.2    98  LEU98       0.2592
     64  O        -26.2080   -0.1710   59.8260 O.2    98  LEU98      -0.2718
     65  CB       -26.2040   -0.1240   63.0100 C.3    98  LEU98       0.0284
     66  CG       -26.5210    0.8560   64.1350 C.3    98  LEU98       0.0019
     67  CD1      -25.4340    0.7220   65.1990 C.3    98  LEU98       0.0001
     68  CD2      -26.6490    2.3120   63.6390 C.3    98  LEU98       0.0001
     69  N        -26.7380   -2.1930   60.6560 N.am   99  HIS99      -0.1976
     70  CA       -25.9250   -2.9310   59.6750 C.3    99  HIS99       0.1656
     71  C        -26.6580   -3.8940   58.7520 C.2    99  HIS99       0.2291
     72  O        -26.1600   -4.1990   57.6590 O.2    99  HIS99      -0.2864
     73  CB       -24.8650   -3.7780   60.3950 C.3    99  HIS99       0.0771
     74  CG       -24.0750   -3.0300   61.4230 C.ar   99  HIS99       0.0820
     75  ND1      -23.1520   -2.0610   61.0940 N.ar   99  HIS99      -0.2267
     76  CD2      -24.0520   -3.1310   62.7710 C.ar   99  HIS99       0.1154
     77  CE1      -22.5980   -1.5910   62.1990 C.ar   99  HIS99       0.1986
     78  NE2      -23.1310   -2.2170   63.2300 N.ar   99  HIS99      -0.2212
     79  N        -22.5830    5.9680   63.6210 N.3   243  SER243     -0.1217
     80  CA       -22.6690    4.6450   64.2280 C.3   243  SER243      0.1889
     81  C        -22.7700    3.5350   63.1820 C.2   243  SER243      0.2288
     82  O        -22.3040    2.4200   63.4140 O.2   243  SER243     -0.2866
     83  CB       -23.8260    4.5670   65.2320 C.3   243  SER243      0.2089
     84  OG       -25.0710    4.6770   64.5770 O.3   243  SER243     -0.2183
     85  N        -19.0630    2.8530   61.9850 N.3   246  PHE246     -0.1227
     86  CA       -17.9860    2.7340   62.9600 C.3   246  PHE246      0.1736
     87  C        -17.3150    1.3710   62.9070 C.2   246  PHE246      0.2595
     88  O        -16.0870    1.2870   62.8480 O.2   246  PHE246     -0.2718
     89  CB       -18.4690    3.0290   64.3880 C.3   246  PHE246      0.0547
     90  CG       -17.3460    3.2400   65.3530 C.ar  246  PHE246     -0.0202
     91  CD1      -16.8100    2.1670   66.0550 C.ar  246  PHE246     -0.0042
     92  CD2      -16.8090    4.5130   65.5390 C.ar  246  PHE246     -0.0042
     93  CE1      -15.7460    2.3630   66.9460 C.ar  246  PHE246     -0.0003
     94  CE2      -15.7520    4.7230   66.4150 C.ar  246  PHE246     -0.0003
     95  CZ       -15.2250    3.6330   67.1260 C.ar  246  PHE246     -0.0000
     96  N        -18.1020    0.3030   62.9860 N.am  247  ALA247     -0.1980
     97  CA       -17.4900   -1.0440   63.0750 C.3   247  ALA247      0.1597
     98  C        -16.6050   -1.3510   61.8940 C.2   247  ALA247      0.2287
     99  O        -15.5140   -1.9360   62.0470 O.2   247  ALA247     -0.2864
    100  CB       -18.5680   -2.1150   63.2030 C.3   247  ALA247      0.0319
    101  N        -12.5700    1.2920   61.2700 N.3   250  HIS250     -0.1226
    102  CA       -11.2330    1.0660   61.8280 C.3   250  HIS250      0.1752
    103  C        -10.7250   -0.3060   61.4800 C.2   250  HIS250      0.2596
    104  O         -9.5230   -0.5130   61.2910 O.2   250  HIS250     -0.2718
    105  CB       -11.1540    1.3510   63.3310 C.3   250  HIS250      0.0759
    106  CG       -11.8140    0.3190   64.1970 C.ar  250  HIS250      0.0818
    107  ND1      -11.1230   -0.7400   64.7440 N.ar  250  HIS250     -0.2268
    108  CD2      -13.0880    0.2140   64.6570 C.ar  250  HIS250      0.1154
    109  CE1      -11.9440   -1.4650   65.4870 C.ar  250  HIS250      0.1986
    110  NE2      -13.1420   -0.9060   65.4560 N.ar  250  HIS250     -0.2212
    111  N        -11.6500   -1.2560   61.3750 N.am  251  THR251     -0.1953
    112  CA       -11.2310   -2.6090   61.0790 C.3   251  THR251      0.1897
    113  C        -10.7720   -2.7460   59.6310 C.2   251  THR251      0.2313
    114  O         -9.7310   -3.3460   59.3680 O.2   251  THR251     -0.2863
    115  CB       -12.3660   -3.5880   61.3600 C.3   251  THR251      0.1794
    116  OG1      -13.5380   -3.1960   60.6190 O.3   251  THR251     -0.2208
    117  CG2      -12.6480   -3.6320   62.8670 C.3   251  THR251      0.0378
    118  N         -9.3820   -5.8750   66.8150 N.3   312  LEU312     -0.1245
    119  CA        -9.8590   -5.7420   68.1990 C.3   312  LEU312      0.1561
    120  C         -8.9730   -6.6850   69.0070 C.2   312  LEU312      0.2260
    121  O         -8.9970   -7.9090   68.7910 O.2   312  LEU312     -0.2867
    122  CB       -11.3300   -6.1580   68.3290 C.3   312  LEU312      0.0270
    123  CG       -12.3480   -5.1020   67.8930 C.3   312  LEU312      0.0019
    124  CD1      -12.4050   -5.0510   66.3650 C.3   312  LEU312      0.0001
    125  CD2      -13.7300   -5.3750   68.5340 C.3   312  LEU312      0.0001
    126  N        -21.7920  -13.8090   69.5590 N.3   383  HIS383     -0.1241
    127  CA       -21.6220  -12.4520   69.0360 C.3   383  HIS383      0.1621
    128  C        -20.5750  -12.3880   67.9190 C.2   383  HIS383      0.2264
    129  O        -20.0230  -11.3180   67.6530 O.2   383  HIS383     -0.2867
    130  CB       -21.2300  -11.4670   70.1520 C.3   383  HIS383      0.0745
    131  CG       -22.3000  -11.2590   71.1810 C.ar  383  HIS383      0.0817
    132  ND1      -23.4460  -10.5300   70.9290 N.ar  383  HIS383     -0.2268
    133  CD2      -22.3860  -11.6710   72.4680 C.ar  383  HIS383      0.1154
    134  CE1      -24.2040  -10.5220   72.0160 C.ar  383  HIS383      0.1986
    135  NE2      -23.5810  -11.2060   72.9640 N.ar  383  HIS383     -0.2212
    136  N        -18.6430  -11.8650   64.6140 N.3   385  CYS385     -0.1235
    137  CA       -18.8110  -10.7260   63.7190 C.3   385  CYS385      0.1677
    138  C        -19.7820  -10.9860   62.5660 C.2   385  CYS385      0.2270
    139  O        -19.5670  -11.8870   61.7520 O.2   385  CYS385     -0.2867
    140  CB       -17.4630  -10.3490   63.1060 C.3   385  CYS385      0.0956
    141  SG       -17.5880   -8.8330   62.1140 S.3   385  CYS385     -0.0801
    142  N         -8.8600    2.1520   72.7630 N.3   424  MET424     -0.1230
    143  CA        -9.6210    0.9300   72.5580 C.3   424  MET424      0.1702
    144  C         -9.8430    0.6470   71.0860 C.2   424  MET424      0.2592
    145  O        -10.1980   -0.4860   70.7180 O.2   424  MET424     -0.2718
    146  CB       -10.9760    0.9700   73.2640 C.3   424  MET424      0.0401
    147  CG       -10.8860    0.9490   74.7800 C.3   424  MET424      0.0596
    148  SD       -10.1460   -0.5330   75.5360 S.3   424  MET424     -0.1393
    149  CE       -11.2840   -1.8290   75.0440 C.3   424  MET424      0.0692
    150  N         -9.6930    1.6820   70.2580 N.am  425  VAL425     -0.1980
    151  CA        -9.7200    1.5030   68.8080 C.3   425  VAL425      0.1595
    152  C         -8.2670    1.5780   68.3450 C.2   425  VAL425      0.2287
    153  O         -7.6210    2.6320   68.3880 O.2   425  VAL425     -0.2864
    154  CB       -10.5840    2.5770   68.0920 C.3   425  VAL425      0.0276
    155  CG1      -10.4100    2.5170   66.5780 C.3   425  VAL425      0.0022
    156  CG2      -12.0460    2.3840   68.4450 C.3   425  VAL425      0.0022
@<TRIPOS>BOND
     1    72    71    2
     2    71    70    1
     3   114   113    2
     4   113   112    1
     5    70    73    1
     6    70    69    1
     7    64    63    2
     8    73    74    1
     9   116   115    1
    10    69    63   am
    11    63    62    1
    12   112   115    1
    13   112   111    1
    14    75    74   ar
    15    75    77   ar
    16   101   102    1
    17   104   103    2
    18   115   117    1
    19   111   103   am
    20    74    76   ar
    21   103   102    1
    22   139   138    2
    23   102   105    1
    24    98    99    2
    25    98    97    1
    26    62    61    1
    27    62    65    1
    28    85    86    1
    29   141   140    1
    30    77    78   ar
    31   138   137    1
    32    76    78   ar
    33    88    87    2
    34    87    86    1
    35    87    96   am
    36    86    89    1
    37    96    97    1
    38    65    66    1
    39    97   100    1
    40   140   137    1
    41    81    82    2
    42    81    80    1
    43   105   106    1
    44    79    80    1
    45    68    66    1
    46   137   136    1
    47    66    67    1
    48   106   108   ar
    49   106   107   ar
    50    80    83    1
    51    55    54    2
    52    89    90    1
    53    84    83    1
    54   108   110   ar
    55   107   109   ar
    56    54    53    1
    57    90    92   ar
    58    90    91   ar
    59   110   109   ar
    60    92    94   ar
    61    91    93   ar
    62   124   123    1
    63    94    95   ar
    64   155   154    1
    65    53    52    1
    66    53    56    1
    67   118   119    1
    68    93    95   ar
    69    57    56    1
    70    57    58    1
    71   129   128    2
    72   123   122    1
    73   123   125    1
    74   128   127    1
    75   154   156    1
    76   154   151    1
    77   119   122    1
    78   119   120    1
    79    59    58    1
    80    59    60    1
    81   152   153    2
    82   152   151    1
    83    49    47   ar
    84    49    51   ar
    85   121   120    2
    86   151   150    1
    87    40    39    1
    88    47    46   ar
    89   127   126    1
    90   127   130    1
    91    44    43    2
    92    42    43    1
    93    42    41    1
    94    42    45    1
    95    51    50   ar
    96    39    38    1
    97    46    45    1
    98    46    48   ar
    99   130   131    1
   100   150   144   am
   101   145   144    2
   102   132   131   ar
   103   132   134   ar
   104    50    48   ar
   105     9     7   am
   106   144   143    1
   107   131   133   ar
   108    38    37    1
   109     8     7    2
   110    30    28   ar
   111    30    32   ar
   112    36    35    2
   113     7     6    1
   114    37    34    1
   115   134   135   ar
   116    34    35    1
   117    34    33    1
   118    28    27   ar
   119   133   135   ar
   120    32    31   ar
   121   143   142    1
   122   143   146    1
   123    21    20    1
   124    25    24    2
   125    20    18   ar
   126    20    19   ar
   127   146   147    1
   128    18    16   ar
   129     6     5    1
   130    19    17   ar
   131    33    24   am
   132    16    15   ar
   133    24    23    1
   134    17    15   ar
   135    27    26    1
   136    27    29   ar
   137    15    14    1
   138    31    29   ar
   139    14    11    1
   140     5     2    1
   141    26    23    1
   142    13    12    2
   143   147   148    1
   144    23    22    1
   145   149   148    1
   146     4     3    2
   147    11    12    1
   148    11    10    1
   149     3     2    1
   150     2     1    1
