@<TRIPOS>MOLECULE
tmp/2w0jA00.pdb
 201 184 0 0 0
SMALL
GASTEIGER

@<TRIPOS>ATOM
      1  N         45.0740  -32.2040    7.2130 N.3    17  LEU17      -0.1231
      2  CA        44.0930  -31.5470    6.3570 C.3    17  LEU17       0.1693
      3  C         43.5470  -30.3230    7.0840 C.2    17  LEU17       0.2592
      4  O         43.3800  -29.2690    6.4790 O.2    17  LEU17      -0.2718
      5  CB        42.9740  -32.5250    5.9660 C.3    17  LEU17       0.0284
      6  CG        43.4490  -33.7980    5.2380 C.3    17  LEU17       0.0019
      7  CD1       42.3280  -34.7990    5.0950 C.3    17  LEU17       0.0001
      8  CD2       44.0450  -33.4690    3.8770 C.3    17  LEU17       0.0001
      9  N         43.2820  -30.4630    8.3820 N.am   18  GLY18      -0.1957
     10  CA        42.8470  -29.3330    9.2130 C.3    18  GLY18       0.1869
     11  C         43.2010  -29.4700   10.6890 C.2    18  GLY18       0.2309
     12  O         44.0890  -30.2450   11.0580 O.2    18  GLY18      -0.2863
     13  N         42.5710  -33.1740   12.0250 N.3    22  VAL22      -0.1245
     14  CA        42.1910  -34.1310   10.9810 C.3    22  VAL22       0.1561
     15  C         43.3730  -34.3990   10.0470 C.2    22  VAL22       0.2260
     16  O         43.9700  -33.4760    9.4940 O.2    22  VAL22      -0.2867
     17  CB        40.9400  -33.6650   10.1790 C.3    22  VAL22       0.0252
     18  CG1       40.5750  -34.6800    9.1160 C.3    22  VAL22       0.0019
     19  CG2       39.7620  -33.4600   11.1130 C.3    22  VAL22       0.0019
     20  N         39.8860  -39.9050    6.1580 N.3    35  ALA35      -0.1245
     21  CA        40.2820  -38.8310    7.0730 C.3    35  ALA35       0.1562
     22  C         40.2690  -39.4220    8.4640 C.2    35  ALA35       0.2260
     23  O         39.3980  -40.2360    8.7940 O.2    35  ALA35      -0.2867
     24  CB        39.3330  -37.6350    6.9690 C.3    35  ALA35       0.0290
     25  N         40.2190  -38.2860   12.3010 N.3    37  LYS37      -0.1245
     26  CA        39.9970  -37.2470   13.3130 C.3    37  LYS37       0.1561
     27  C         40.5800  -37.7200   14.6420 C.2    37  LYS37       0.2260
     28  O         40.2230  -38.7780   15.1730 O.2    37  LYS37      -0.2867
     29  CB        38.4950  -36.9450   13.4320 C.3    37  LYS37       0.0271
     30  CG        38.0900  -35.9780   14.5290 C.3    37  LYS37       0.0035
     31  CD        38.5150  -34.5690   14.2320 C.3    37  LYS37       0.0206
     32  CE        38.1820  -33.6480   15.4110 C.3    37  LYS37       0.1093
     33  NZ        39.1300  -32.5070   15.4870 N.3    37  LYS37      -0.1314
     34  N         40.9890  -36.8570   18.5100 N.3    39  ILE39      -0.1245
     35  CA        40.4270  -36.1330   19.6390 C.3    39  ILE39       0.1561
     36  C         41.2840  -36.4580   20.8680 C.2    39  ILE39       0.2260
     37  O         41.2290  -37.5660   21.4030 O.2    39  ILE39      -0.2867
     38  CB        38.9460  -36.5500   19.8570 C.3    39  ILE39       0.0252
     39  CG1       38.0760  -35.9930   18.7240 C.3    39  ILE39       0.0019
     40  CG2       38.4160  -36.0850   21.2220 C.3    39  ILE39       0.0019
     41  CD1       36.8560  -36.8420   18.4290 C.3    39  ILE39       0.0001
     42  N         32.6270  -39.2290   23.4300 N.3    43  VAL43      -0.1245
     43  CA        33.0550  -39.6730   22.1150 C.3    43  VAL43       0.1561
     44  C         32.3780  -40.9810   21.7740 C.2    43  VAL43       0.2260
     45  O         31.9940  -41.2080   20.6260 O.2    43  VAL43      -0.2867
     46  CB        34.5860  -39.7570   22.0330 C.3    43  VAL43       0.0252
     47  CG1       35.0250  -40.0960   20.6190 C.3    43  VAL43       0.0019
     48  CG2       35.1910  -38.4260   22.4700 C.3    43  VAL43       0.0019
     49  N         28.9020  -40.1910   20.6430 N.3    46  GLU46      -0.1245
     50  CA        29.0620  -39.6530   19.3090 C.3    46  GLU46       0.1567
     51  C         29.2360  -40.8040   18.3100 C.2    46  GLU46       0.2260
     52  O         28.5700  -40.8490   17.2710 O.2    46  GLU46      -0.2867
     53  CB        30.2350  -38.6960   19.2510 C.3    46  GLU46       0.0388
     54  CG        30.6350  -38.3600   17.8150 C.3    46  GLU46       0.1160
     55  CD        31.6160  -37.2360   17.7520 C.2    46  GLU46       0.3649
     56  OE1       31.7510  -36.6410   16.6490 O.co2  46  GLU46      -0.2457
     57  OE2       32.2260  -36.9380   18.8140 O.co2  46  GLU46      -0.2457
     58  N         26.6350  -41.7890   15.4290 N.3    50  LEU50      -0.1245
     59  CA        27.0940  -41.8240   14.0440 C.3    50  LEU50       0.1561
     60  C         26.9770  -43.1940   13.3740 C.2    50  LEU50       0.2260
     61  O         26.6790  -43.2740   12.1790 O.2    50  LEU50      -0.2867
     62  CB        28.5290  -41.3050   13.9450 C.3    50  LEU50       0.0270
     63  CG        28.6050  -39.7690   13.9530 C.3    50  LEU50       0.0019
     64  CD1       30.0460  -39.2950   14.0910 C.3    50  LEU50       0.0001
     65  CD2       27.9510  -39.1910   12.6820 C.3    50  LEU50       0.0001
     66  N         27.9670  -37.3810    7.7620 N.3    59  ILE59      -0.1245
     67  CA        29.2450  -38.0960    7.6830 C.3    59  ILE59       0.1561
     68  C         29.1680  -39.4890    8.3150 C.2    59  ILE59       0.2260
     69  O         28.5670  -39.6770    9.3710 O.2    59  ILE59      -0.2867
     70  CB        30.3680  -37.2660    8.3570 C.3    59  ILE59       0.0252
     71  CG1       31.7550  -37.6170    7.7980 C.3    59  ILE59       0.0019
     72  CG2       30.3140  -37.4260    9.8820 C.3    59  ILE59       0.0019
     73  CD1       32.0210  -37.1140    6.4000 C.3    59  ILE59       0.0001
     74  N         39.0480  -41.3240   15.1210 N.3    72  ILE72      -0.1245
     75  CA        37.8250  -41.5700   14.3500 C.3    72  ILE72       0.1561
     76  C         38.1740  -41.5270   12.8700 C.2    72  ILE72       0.2260
     77  O         38.5620  -40.4890   12.3580 O.2    72  ILE72      -0.2867
     78  CB        36.7020  -40.5190   14.6080 C.3    72  ILE72       0.0252
     79  CG1       36.4100  -40.3480   16.1040 C.3    72  ILE72       0.0019
     80  CG2       35.4270  -40.9160   13.8650 C.3    72  ILE72       0.0019
     81  CD1       35.3970  -39.1690   16.4020 C.3    72  ILE72       0.0001
     82  N         36.9330  -41.5360    9.0930 N.3    74  LEU74      -0.1231
     83  CA        35.7710  -41.0490    8.3390 C.3    74  LEU74       0.1693
     84  C         36.1020  -40.9600    6.8550 C.2    74  LEU74       0.2592
     85  O         37.2730  -40.9140    6.4620 O.2    74  LEU74      -0.2718
     86  CB        35.4170  -39.6300    8.7780 C.3    74  LEU74       0.0284
     87  CG        35.3310  -39.3220   10.2800 C.3    74  LEU74       0.0019
     88  CD1       36.1850  -38.0870   10.5900 C.3    74  LEU74       0.0001
     89  CD2       33.8740  -39.1780   10.7610 C.3    74  LEU74       0.0001
     90  N         35.0620  -40.9230    6.0380 N.am   75  GLU75      -0.1966
     91  CA        35.2280  -40.6140    4.6330 C.3    75  GLU75       0.1733
     92  C         35.9170  -39.2610    4.4650 C.2    75  GLU75       0.2616
     93  O         35.7190  -38.3390    5.2580 O.2    75  GLU75      -0.2715
     94  CB        33.8830  -40.7060    3.8890 C.3    75  GLU75       0.0429
     95  CG        32.7310  -39.8640    4.4670 C.3    75  GLU75       0.1163
     96  CD        31.3330  -40.4720    4.2350 C.2    75  GLU75       0.3649
     97  OE1       30.3720  -40.0110    4.9000 O.co2  75  GLU75      -0.2457
     98  OE2       31.2040  -41.4100    3.3970 O.co2  75  GLU75      -0.2457
     99  N         36.8030  -39.1760    3.4830 N.am   76  LEU76      -0.1963
    100  CA        37.5120  -37.9460    3.2020 C.3    76  LEU76       0.1728
    101  C         36.6400  -37.0160    2.3480 C.2    76  LEU76       0.2616
    102  O         36.1470  -37.3970    1.2830 O.2    76  LEU76      -0.2715
    103  CB        38.8410  -38.2260    2.4890 C.3    76  LEU76       0.0311
    104  CG        39.6890  -36.9860    2.1750 C.3    76  LEU76       0.0022
    105  CD1       40.3930  -36.4360    3.4160 C.3    76  LEU76       0.0001
    106  CD2       40.7120  -37.2750    1.0970 C.3    76  LEU76       0.0001
    107  N         36.4980  -35.7880    2.8010 N.am   77  MET77      -0.1963
    108  CA        35.7130  -34.8030    2.0990 C.3    77  MET77       0.1736
    109  C         36.7210  -33.8480    1.4560 C.2    77  MET77       0.2616
    110  O         37.3700  -33.0740    2.1290 O.2    77  MET77      -0.2715
    111  CB        34.7420  -34.0840    3.0600 C.3    77  MET77       0.0427
    112  CG        33.6540  -34.9740    3.6070 C.3    77  MET77       0.0599
    113  SD        32.5580  -35.5970    2.3460 S.3    77  MET77      -0.1393
    114  CE        31.5090  -34.1630    2.0960 C.3    77  MET77       0.0692
    115  N         36.8450  -33.9600    0.1400 N.am   78  GLU78      -0.1963
    116  CA        37.8960  -33.2940   -0.6240 C.3    78  GLU78       0.1733
    117  C         37.7290  -31.7740   -0.6970 C.2    78  GLU78       0.2617
    118  O         38.6960  -31.0460   -0.9120 O.2    78  GLU78      -0.2715
    119  CB        37.9010  -33.8480   -2.0460 C.3    78  GLU78       0.0429
    120  CG        37.9670  -35.3670   -2.1470 C.3    78  GLU78       0.1163
    121  CD        39.3630  -35.8940   -2.0100 C.2    78  GLU78       0.3649
    122  OE1       39.6760  -36.9050   -2.7010 O.co2  78  GLU78      -0.2457
    123  OE2       40.1440  -35.2910   -1.2190 O.co2  78  GLU78      -0.2457
    124  N         36.5020  -31.2990   -0.5110 N.am   79  GLY79      -0.1940
    125  CA        36.2210  -29.8660   -0.5500 C.3    79  GLY79       0.2014
    126  C         36.5510  -29.0610    0.6830 C.2    79  GLY79       0.2639
    127  O         36.4700  -27.8280    0.6710 O.2    79  GLY79      -0.2714
    128  N         36.8690  -29.7490    1.7780 N.am   80  GLY80      -0.1939
    129  CA        37.1580  -29.0630    3.0240 C.3    80  GLY80       0.2014
    130  C         35.9050  -28.5450    3.7110 C.2    80  GLY80       0.2638
    131  O         34.8050  -29.0050    3.4370 O.2    80  GLY80      -0.2714
    132  N         36.1080  -27.5640    4.5840 N.am   81  GLU81      -0.1977
    133  CA        35.0450  -26.9280    5.3750 C.3    81  GLU81       0.1602
    134  C         34.3500  -25.7900    4.6570 C.2    81  GLU81       0.2287
    135  O         35.0090  -24.9900    3.9950 O.2    81  GLU81      -0.2864
    136  CB        35.6510  -26.3110    6.6210 C.3    81  GLU81       0.0415
    137  CG        36.2560  -27.2940    7.5770 C.3    81  GLU81       0.1163
    138  CD        36.8070  -26.6160    8.8210 C.2    81  GLU81       0.3649
    139  OE1       37.2840  -27.3530    9.6990 O.co2  81  GLU81      -0.2457
    140  OE2       36.7710  -25.3610    8.9200 O.co2  81  GLU81      -0.2457
    141  N         35.7850  -22.2390    5.0250 N.3    84  ASP84      -0.1239
    142  CA        36.8110  -21.6480    4.1510 C.3    84  ASP84       0.1674
    143  C         36.2270  -20.9110    2.9490 C.2    84  ASP84       0.2266
    144  O         36.8850  -20.0190    2.4040 O.2    84  ASP84      -0.2867
    145  CB        37.8140  -22.6960    3.7140 C.3    84  ASP84       0.1410
    146  CG        38.5600  -23.2800    4.8860 C.2    84  ASP84       0.3668
    147  OD1       39.0380  -22.4810    5.7310 O.co2  84  ASP84      -0.2456
    148  OD2       38.6340  -24.5240    4.9880 O.co2  84  ASP84      -0.2456
    149  N         32.1820  -24.6370   10.1200 N.3   124  GLU124     -0.1231
    150  CA        33.2960  -25.5860   10.3250 C.3   124  GLU124      0.1699
    151  C         32.8510  -27.0130   10.2860 C.2   124  GLU124      0.2592
    152  O         33.6450  -27.8990    9.9440 O.2   124  GLU124     -0.2718
    153  CB        33.9910  -25.3460   11.6430 C.3   124  GLU124      0.0402
    154  CG        34.6510  -23.9890   11.7410 C.3   124  GLU124      0.1161
    155  CD        33.7170  -22.9070   12.2920 C.2   124  GLU124      0.3649
    156  OE1       32.5560  -22.7860   11.8570 O.co2 124  GLU124     -0.2457
    157  OE2       34.1690  -22.1640   13.1870 O.co2 124  GLU124     -0.2457
    158  N         31.5830  -27.2430   10.6210 N.am  125  ASN125     -0.1974
    159  CA        31.0610  -28.5940   10.7320 C.3   125  ASN125      0.1688
    160  C         30.2570  -29.0130    9.5420 C.2   125  ASN125      0.2292
    161  O         29.5520  -30.0030    9.5950 O.2   125  ASN125     -0.2864
    162  CB        30.2180  -28.6970   12.0070 C.3   125  ASN125      0.1181
    163  CG        31.0550  -28.6930   13.2020 C.2   125  ASN125      0.2629
    164  OD1       32.2530  -28.9820   13.1040 O.2   125  ASN125     -0.2716
    165  ND2       30.4850  -28.3460   14.3470 N.am  125  ASN125     -0.0877
    166  N         30.9570  -30.0610    5.7130 N.3   127  LEU127     -0.1245
    167  CA        32.0700  -30.4750    4.8520 C.3   127  LEU127      0.1561
    168  C         31.5910  -30.5930    3.4280 C.2   127  LEU127      0.2260
    169  O         30.4870  -31.0450    3.1980 O.2   127  LEU127     -0.2867
    170  CB        32.6570  -31.8210    5.3170 C.3   127  LEU127      0.0270
    171  CG        33.0590  -31.8850    6.7890 C.3   127  LEU127      0.0019
    172  CD1       33.4510  -33.3080    7.1990 C.3   127  LEU127      0.0001
    173  CD2       34.1560  -30.9200    7.0580 C.3   127  LEU127      0.0001
    174  N         36.0820  -29.8630   -4.6660 N.3   131  GLN131     -0.1245
    175  CA        36.4380  -28.4780   -4.8590 C.3   131  GLN131      0.1566
    176  C         35.5680  -27.8170   -5.9220 C.2   131  GLN131      0.2260
    177  O         35.6630  -26.6140   -6.1120 O.2   131  GLN131     -0.2867
    178  CB        37.9180  -28.3740   -5.1750 C.3   131  GLN131      0.0367
    179  CG        38.7910  -28.8400   -4.0260 C.3   131  GLN131      0.0905
    180  CD        40.2480  -28.9640   -4.4170 C.2   131  GLN131      0.2608
    181  OE1       41.0930  -28.2070   -3.9340 O.2   131  GLN131     -0.2717
    182  NE2       40.5540  -29.9150   -5.3050 N.am  131  GLN131     -0.0878
    183  N         29.1560  -32.8770    9.9960 N.3   140  THR140     -0.1203
    184  CA        29.9800  -33.6360   10.8870 C.3   140  THR140      0.1994
    185  C         29.9660  -33.0650   12.3210 C.2   140  THR140      0.2617
    186  O         29.2480  -32.1160   12.6670 O.2   140  THR140     -0.2717
    187  CB        31.4440  -33.6550   10.3460 C.3   140  THR140      0.1784
    188  OG1       32.1710  -34.6920   11.0260 O.3   140  THR140     -0.2211
    189  CG2       32.1120  -32.3110   10.5430 C.3   140  THR140      0.0376
    190  N         30.7740  -33.7010   13.1510 N.am  141  ASP141     -0.1973
    191  CA        30.9820  -33.3340   14.5580 C.3   141  ASP141      0.1709
    192  C         29.7570  -33.4100   15.4680 C.2   141  ASP141      0.2293
    193  O         29.0920  -32.4010   15.7610 O.2   141  ASP141     -0.2864
    194  CB        31.5750  -31.9910   14.6890 C.3   141  ASP141      0.1436
    195  CG        31.8480  -31.6610   16.1190 C.2   141  ASP141      0.3671
    196  OD1       31.7270  -32.5890   16.9800 O.co2 141  ASP141     -0.2456
    197  OD2       32.2090  -30.4950   16.3790 O.co2 141  ASP141     -0.2456
    198  N         29.8340  -34.2990   18.6490 N.3   143  GLY143     -0.1225
    199  CA        30.3220  -34.2960   20.0040 C.3   143  GLY143      0.1811
    200  C         29.4960  -33.5320   21.0310 C.2   143  GLY143      0.2280
    201  O         29.7270  -33.6920   22.2320 O.2   143  GLY143     -0.2866
@<TRIPOS>BOND
     1   177   176    2
     2   176   175    1
     3   182   180   am
     4   178   175    1
     5   178   179    1
     6   175   174    1
     7   180   179    1
     8   180   181    2
     9   122   121   ar
    10   120   119    1
    11   120   121    1
    12   119   116    1
    13   121   123   ar
    14   118   117    2
    15   117   116    1
    16   117   124   am
    17   116   115    1
    18   125   124    1
    19   125   126    1
    20   115   109   am
    21   127   126    2
    22   126   128   am
    23   106   104    1
    24   102   101    2
    25   109   108    1
    26   109   110    2
    27   128   129    1
    28   114   113    1
    29   108   107    1
    30   108   111    1
    31   104   103    1
    32   104   105    1
    33   113   112    1
    34   101   107   am
    35   101   100    1
    36   144   143    2
    37   103   100    1
    38   143   142    1
    39   129   130    1
    40   111   112    1
    41   169   168    2
    42   100    99    1
    43    98    96   ar
    44   168   167    1
    45   131   130    2
    46    99    92   am
    47   130   132   am
    48   145   142    1
    49   145   146    1
    50     8     6    1
    51    94    95    1
    52    94    91    1
    53   135   134    2
    54   142   141    1
    55    96    95    1
    56    96    97   ar
    57    92    91    1
    58    92    93    2
    59   132   133    1
    60    91    90    1
    61   134   133    1
    62   167   170    1
    63   167   166    1
    64   146   148   ar
    65   146   147   ar
    66     7     6    1
    67     6     5    1
    68   170   171    1
    69   133   136    1
    70     5     2    1
    71    90    84   am
    72    20    21    1
    73     2     3    1
    74     2     1    1
    75    73    71    1
    76    85    84    2
    77     4     3    2
    78   136   137    1
    79   171   173    1
    80   171   172    1
    81    84    83    1
    82    24    21    1
    83    21    22    1
    84     3     9   am
    85   137   138    1
    86    67    66    1
    87    67    68    1
    88    67    70    1
    89    71    70    1
    90    68    69    2
    91    83    86    1
    92    83    82    1
    93    70    72    1
    94     9    10    1
    95    22    23    2
    96    86    87    1
    97   138   140   ar
    98   138   139   ar
    99    18    17    1
   100    10    11    1
   101    16    15    2
   102   160   161    2
   103   160   159    1
   104   152   151    2
   105   183   184    1
   106    15    14    1
   107   149   150    1
   108    17    14    1
   109    17    19    1
   110    87    88    1
   111    87    89    1
   112   151   150    1
   113   151   158   am
   114   150   153    1
   115   187   189    1
   116   187   184    1
   117   187   188    1
   118   158   159    1
   119    11    12    2
   120   159   162    1
   121   184   185    1
   122    14    13    1
   123   153   154    1
   124   154   155    1
   125   156   155   ar
   126   162   163    1
   127    61    60    2
   128   155   157   ar
   129    25    26    1
   130   185   186    2
   131   185   190   am
   132    77    76    2
   133    65    63    1
   134    76    75    1
   135   164   163    2
   136   190   191    1
   137   163   165   am
   138    26    29    1
   139    26    27    1
   140    60    59    1
   141    29    30    1
   142    80    78    1
   143    62    63    1
   144    62    59    1
   145    63    64    1
   146    59    58    1
   147    31    30    1
   148    31    32    1
   149    75    78    1
   150    75    74    1
   151   191   194    1
   152   191   192    1
   153    78    79    1
   154    27    28    2
   155   194   195    1
   156    32    33    1
   157   192   193    2
   158    79    81    1
   159   195   197   ar
   160   195   196   ar
   161    56    55   ar
   162    52    51    2
   163    55    54    1
   164    55    57   ar
   165    54    53    1
   166    51    50    1
   167    41    39    1
   168    34    35    1
   169   198   199    1
   170    39    38    1
   171    53    50    1
   172    50    49    1
   173    35    38    1
   174    35    36    1
   175    38    40    1
   176   199   200    1
   177    47    46    1
   178    45    44    2
   179    36    37    2
   180   200   201    2
   181    44    43    1
   182    46    43    1
   183    46    48    1
   184    43    42    1
