@<TRIPOS>MOLECULE
tmp/2w0mA00.pdb
 100 94 0 0 0
SMALL
GASTEIGER

@<TRIPOS>ATOM
      1  N         25.5950   13.2500   36.3200 N.3    32  PRO32      -0.2102
      2  CA        25.8360   13.3530   37.7580 C.3    32  PRO32       0.1504
      3  C         26.8810   12.3420   38.2290 C.2    32  PRO32       0.2576
      4  O         26.9610   11.2360   37.6990 O.2    32  PRO32      -0.2718
      5  CB        24.4690   13.0280   38.3700 C.3    32  PRO32       0.0282
      6  CG        23.4880   13.2790   37.2850 C.3    32  PRO32       0.0208
      7  CD        24.1890   12.9310   36.0170 C.3    32  PRO32       0.0893
      8  N         27.6790   12.7500   39.2100 N.am   33  GLY33      -0.1943
      9  CA        28.7170   11.9080   39.8070 C.3    33  GLY33       0.2014
     10  C         29.9620   11.7250   38.9590 C.2    33  GLY33       0.2640
     11  O         30.5970   10.6840   39.0070 O.2    33  GLY33      -0.2714
     12  N         30.3270   12.7480   38.1980 N.am   34  THR34      -0.1936
     13  CA        31.4530   12.6510   37.2660 C.3    34  THR34       0.2028
     14  C         32.6350   13.5240   37.6810 C.2    34  THR34       0.2643
     15  O         33.6340   13.6250   36.9590 O.2    34  THR34      -0.2714
     16  CB        31.0210   13.0170   35.8300 C.3    34  THR34       0.1808
     17  OG1       30.2370   14.2170   35.8540 O.3    34  THR34      -0.2208
     18  CG2       30.1920   11.8820   35.2240 C.3    34  THR34       0.0379
     19  N         32.5120   14.1610   38.8410 N.am   35  GLY35      -0.1939
     20  CA        33.6190   14.9010   39.4290 C.3    35  GLY35       0.2014
     21  C         33.5250   16.4060   39.2930 C.2    35  GLY35       0.2639
     22  O         34.4600   17.1230   39.6320 O.2    35  GLY35      -0.2714
     23  N         32.3940   16.9010   38.8100 N.am   36  LYS36      -0.1963
     24  CA        32.2820   18.3290   38.5100 C.3    36  LYS36       0.1728
     25  C         32.3370   19.1750   39.7780 C.2    36  LYS36       0.2617
     26  O         32.9420   20.2630   39.7990 O.2    36  LYS36      -0.2715
     27  CB        30.9860   18.6260   37.7430 C.3    36  LYS36       0.0311
     28  CG        30.8420   17.8720   36.4220 C.3    36  LYS36       0.0038
     29  CD        29.6790   18.4270   35.5950 C.3    36  LYS36       0.0206
     30  CE        28.3660   18.3860   36.3430 C.3    36  LYS36       0.1093
     31  NZ        27.8420   16.9980   36.5250 N.3    36  LYS36      -0.1314
     32  N         31.6970   18.7040   40.8430 N.am   37  THR37      -0.1937
     33  CA        31.7420   19.4460   42.1000 C.3    37  THR37       0.2028
     34  C         33.1680   19.4730   42.6530 C.2    37  THR37       0.2642
     35  O         33.6590   20.5300   43.0340 O.2    37  THR37      -0.2714
     36  CB        30.7510   18.9070   43.1360 C.3    37  THR37       0.1808
     37  OG1       29.4100   19.1780   42.6840 O.3    37  THR37      -0.2208
     38  CG2       30.9820   19.5700   44.5050 C.3    37  THR37       0.0379
     39  N         33.8390   18.3260   42.6650 N.am   38  ILE38      -0.1977
     40  CA        35.2140   18.2590   43.1720 C.3    38  ILE38       0.1596
     41  C         36.1110   19.1930   42.3660 C.2    38  ILE38       0.2287
     42  O         36.8980   19.9410   42.9340 O.2    38  ILE38      -0.2864
     43  CB        35.8030   16.8320   43.1480 C.3    38  ILE38       0.0276
     44  CG1       34.9440   15.8830   43.9730 C.3    38  ILE38       0.0022
     45  CG2       37.2200   16.8090   43.7410 C.3    38  ILE38       0.0022
     46  CD1       34.3630   16.5360   45.1800 C.3    38  ILE38       0.0001
     47  N         22.9480   20.4540   46.7890 N.3    61  GLU61      -0.1245
     48  CA        23.4080   20.0420   48.1040 C.3    61  GLU61       0.1567
     49  C         23.3130   21.1880   49.0830 C.2    61  GLU61       0.2260
     50  O         23.0470   22.3380   48.7090 O.2    61  GLU61      -0.2867
     51  CB        24.8710   19.6020   48.0660 C.3    61  GLU61       0.0388
     52  CG        25.2140   18.5790   46.9970 C.3    61  GLU61       0.1160
     53  CD        26.7090   18.4130   46.8480 C.2    61  GLU61       0.3649
     54  OE1       27.4310   18.7150   47.8260 O.co2  61  GLU61      -0.2457
     55  OE2       27.1680   17.9840   45.7650 O.co2  61  GLU61      -0.2457
     56  N         32.5360   17.9140   52.0270 N.3    69  GLN69      -0.1245
     57  CA        33.1690   17.3530   50.8410 C.3    69  GLN69       0.1566
     58  C         34.5860   17.8680   50.7020 C.2    69  GLN69       0.2260
     59  O         35.5170   17.1090   50.4130 O.2    69  GLN69      -0.2867
     60  CB        32.3820   17.7100   49.5820 C.3    69  GLN69       0.0367
     61  CG        31.2240   16.7800   49.3120 C.3    69  GLN69       0.0905
     62  CD        30.7410   16.8730   47.8820 C.2    69  GLN69       0.2608
     63  OE1       31.3640   16.3230   46.9690 O.2    69  GLN69      -0.2717
     64  NE2       29.6260   17.5680   47.6760 N.am   69  GLN69      -0.0878
     65  N         26.8370   25.8490   40.9460 N.3   126  ASP126     -0.1239
     66  CA        26.6970   24.3990   40.8870 C.3   126  ASP126      0.1674
     67  C         25.2920   24.0170   41.3600 C.2   126  ASP126      0.2266
     68  O         25.0910   23.8010   42.5520 O.2   126  ASP126     -0.2867
     69  CB        27.7520   23.7860   41.8170 C.3   126  ASP126      0.1410
     70  CG        27.8120   22.2720   41.7600 C.2   126  ASP126      0.3668
     71  OD1       27.3060   21.6640   40.7940 O.co2 126  ASP126     -0.2456
     72  OD2       28.3890   21.6840   42.6980 O.co2 126  ASP126     -0.2456
     73  N         24.1070   19.4640   34.4950 N.3   162  GLN162     -0.1245
     74  CA        23.9060   18.0170   34.3980 C.3   162  GLN162      0.1566
     75  C         22.8240   17.6980   33.3760 C.2   162  GLN162      0.2260
     76  O         21.9370   18.5170   33.1300 O.2   162  GLN162     -0.2867
     77  CB        23.5080   17.4230   35.7540 C.3   162  GLN162      0.0367
     78  CG        24.6120   17.4700   36.8210 C.3   162  GLN162      0.0905
     79  CD        24.4260   18.6220   37.7900 C.2   162  GLN162      0.2608
     80  OE1       23.2880   19.0200   38.0900 O.2   162  GLN162     -0.2717
     81  NE2       25.5370   19.1700   38.2860 N.am  162  GLN162     -0.0878
     82  N         37.1110    7.3200   34.9660 N.3   185  ARG185     -0.1245
     83  CA        36.6620    8.6900   34.8320 C.3   185  ARG185      0.1563
     84  C         37.5670    9.4270   33.8740 C.2   185  ARG185      0.2260
     85  O         38.7840    9.2360   33.8710 O.2   185  ARG185     -0.2867
     86  CB        36.6930    9.4100   36.1760 C.3   185  ARG185      0.0307
     87  CG        35.8380    8.7960   37.2440 C.3   185  ARG185      0.0489
     88  CD        36.1100    9.4770   38.5650 C.3   185  ARG185      0.2205
     89  NE        35.2880    8.9350   39.6370 N.pl3 185  ARG185     -0.0865
     90  CZ        34.0330    9.3020   39.8500 C.cat 185  ARG185      0.5346
     91  NH1       33.4720   10.1920   39.0500 N.pl3 185  ARG185      0.1354
     92  NH2       33.3450    8.7740   40.8490 N.pl3 185  ARG185      0.1354
     93  N         39.7660   10.2630   41.4860 N.3   206  ILE206     -0.1245
     94  CA        39.4090   11.0480   42.6610 C.3   206  ILE206      0.1561
     95  C         39.9480   10.3250   43.8860 C.2   206  ILE206      0.2260
     96  O         39.4720    9.2530   44.2380 O.2   206  ILE206     -0.2867
     97  CB        37.8820   11.2460   42.7870 C.3   206  ILE206      0.0252
     98  CG1       37.3220   11.8670   41.5070 C.3   206  ILE206      0.0019
     99  CG2       37.5640   12.1260   43.9890 C.3   206  ILE206      0.0019
    100  CD1       35.8230   12.1590   41.5680 C.3   206  ILE206      0.0001
@<TRIPOS>BOND
     1    76    75    2
     2    75    74    1
     3    85    84    2
     4    84    83    1
     5    74    73    1
     6    74    77    1
     7    83    82    1
     8    83    86    1
     9    18    16    1
    10    29    30    1
    11    29    28    1
    12    77    78    1
    13    16    17    1
    14    16    13    1
    15     7     1    1
    16     7     6    1
    17    86    87    1
    18     1     2    1
    19    30    31    1
    20    28    27    1
    21    78    79    1
    22    15    14    2
    23    87    88    1
    24    13    14    1
    25    13    12    1
    26     6     5    1
    27    14    19   am
    28     4     3    2
    29    27    24    1
    30     2     3    1
    31     2     5    1
    32    79    80    2
    33    79    81   am
    34    12    10   am
    35     3     8   am
    36    24    23    1
    37    24    25    1
    38    88    89    1
    39    23    21   am
    40    19    20    1
    41    10    11    2
    42    10     9    1
    43    91    90    1
    44     8     9    1
    45    21    20    1
    46    21    22    2
    47    89    90    2
    48    25    26    2
    49    25    32   am
    50    90    92    1
    51    71    70   ar
    52    32    33    1
    53    66    65    1
    54    66    67    1
    55    66    69    1
    56    67    68    2
    57    93    94    1
    58    98   100    1
    59    98    97    1
    60    70    69    1
    61    70    72   ar
    62    33    34    1
    63    33    36    1
    64    41    42    2
    65    41    40    1
    66    34    39   am
    67    34    35    2
    68    94    97    1
    69    94    95    1
    70    39    40    1
    71    37    36    1
    72    97    99    1
    73    36    38    1
    74    43    40    1
    75    43    45    1
    76    43    44    1
    77    95    96    2
    78    44    46    1
    79    55    53   ar
    80    47    48    1
    81    53    52    1
    82    53    54   ar
    83    63    62    2
    84    52    51    1
    85    64    62   am
    86    62    61    1
    87    51    48    1
    88    48    49    1
    89    50    49    2
    90    61    60    1
    91    60    57    1
    92    59    58    2
    93    58    57    1
    94    57    56    1
