@<TRIPOS>MOLECULE
tmp/2w0sA00.pdb
 193 184 0 0 0
SMALL
GASTEIGER

@<TRIPOS>ATOM
      1  N        -35.5770   -4.8250   -7.7790 N.3    12  ASP12      -0.1225
      2  CA       -34.7450   -6.0170   -7.8300 C.3    12  ASP12       0.1805
      3  C        -35.1620   -6.8350   -9.0600 C.2    12  ASP12       0.2597
      4  O        -36.3410   -6.8640   -9.4270 O.2    12  ASP12      -0.2718
      5  CB       -34.8770   -6.8670   -6.5500 C.3    12  ASP12       0.1424
      6  CG       -33.7560   -6.6220   -5.5500 C.2    12  ASP12       0.3668
      7  OD1      -32.8470   -7.4810   -5.3940 O.co2  12  ASP12      -0.2456
      8  OD2      -33.8010   -5.5630   -4.9070 O.co2  12  ASP12      -0.2456
      9  N        -34.1890   -7.4820   -9.6960 N.am   13  LYS13      -0.1979
     10  CA       -34.4450   -8.3590  -10.8320 C.3    13  LYS13       0.1596
     11  C        -34.8930   -7.5890  -12.0780 C.2    13  LYS13       0.2287
     12  O        -35.4180   -8.1810  -13.0230 O.2    13  LYS13      -0.2864
     13  CB       -35.4920   -9.4080  -10.4500 C.3    13  LYS13       0.0298
     14  CG       -35.2510  -10.0740   -9.0990 C.3    13  LYS13       0.0038
     15  CD       -34.0080  -10.9600   -9.1300 C.3    13  LYS13       0.0206
     16  CE       -33.7180  -11.5900   -7.7740 C.3    13  LYS13       0.1093
     17  NZ       -32.4580  -12.3750   -7.8140 N.3    13  LYS13      -0.1314
     18  N        -30.6150   -4.5190  -14.0100 N.3    16  LYS16      -0.1245
     19  CA       -29.6570   -3.4300  -14.1190 C.3    16  LYS16       0.1561
     20  C        -28.2070   -3.9140  -14.0170 C.2    16  LYS16       0.2260
     21  O        -27.2950   -3.2770  -14.5600 O.2    16  LYS16      -0.2867
     22  CB       -29.9640   -2.2980  -13.1370 C.3    16  LYS16       0.0271
     23  CG       -30.2560   -2.7460  -11.7430 C.3    16  LYS16       0.0035
     24  CD       -30.6620   -1.5670  -10.8810 C.3    16  LYS16       0.0206
     25  CE       -31.0490   -2.0810   -9.5120 C.3    16  LYS16       0.1093
     26  NZ       -30.1540   -3.2220   -9.0910 N.3    16  LYS16      -0.1314
     27  N        -20.6300   -1.1030   -7.8550 N.3    36  ASN36      -0.1225
     28  CA       -21.8680   -1.7030   -7.3230 C.3    36  ASN36       0.1785
     29  C        -22.2070   -1.1830   -5.9110 C.2    36  ASN36       0.2597
     30  O        -21.3270   -1.0280   -5.0740 O.2    36  ASN36      -0.2718
     31  CB       -21.7780   -3.2490   -7.3100 C.3    36  ASN36       0.1169
     32  CG       -23.1570   -3.9470   -7.4470 C.2    36  ASN36       0.2627
     33  OD1      -24.1310   -3.5890   -6.7780 O.2    36  ASN36      -0.2716
     34  ND2      -23.2270   -4.9590   -8.3160 N.am   36  ASN36      -0.0877
     35  N        -23.4770   -0.8970   -5.6520 N.am   37  PHE37      -0.1963
     36  CA       -23.9470   -0.6760   -4.2900 C.3    37  PHE37       0.1756
     37  C        -25.0840   -1.6430   -3.9700 C.2    37  PHE37       0.2461
     38  O        -25.9390   -1.9000   -4.8180 O.2    37  PHE37      -0.2730
     39  CB       -24.4170    0.7510   -4.1140 C.3    37  PHE37       0.0574
     40  CG       -23.3110    1.7340   -4.0430 C.ar   37  PHE37      -0.0200
     41  CD1      -23.1030    2.6430   -5.0580 C.ar   37  PHE37      -0.0042
     42  CD2      -22.4590    1.7480   -2.9580 C.ar   37  PHE37      -0.0042
     43  CE1      -22.0580    3.5670   -4.9790 C.ar   37  PHE37      -0.0003
     44  CE2      -21.4320    2.6570   -2.8790 C.ar   37  PHE37      -0.0003
     45  CZ       -21.2270    3.5690   -3.8930 C.ar   37  PHE37      -0.0000
     46  N        -25.0870   -2.1960   -2.7470 N.am   38  PRO38      -0.2727
     47  CA       -24.0880   -1.8370   -1.7370 C.3    38  PRO38       0.1402
     48  C        -22.7590   -2.5550   -1.9630 C.2    38  PRO38       0.2269
     49  O        -22.6570   -3.6140   -2.6020 O.2    38  PRO38      -0.2865
     50  CB       -24.6960   -2.3410   -0.4310 C.3    38  PRO38       0.0296
     51  CG       -25.8570   -3.2300   -0.8270 C.3    38  PRO38       0.0237
     52  CD       -25.8810   -3.3610   -2.3230 C.3    38  PRO38       0.0939
     53  N        -20.6080   -4.6270   -0.5170 N.3    40  ARG40      -0.1245
     54  CA       -20.7300   -5.5640    0.6050 C.3    40  ARG40       0.1563
     55  C        -19.4120   -5.9870    1.2380 C.2    40  ARG40       0.2260
     56  O        -19.3980   -6.7710    2.1890 O.2    40  ARG40      -0.2867
     57  CB       -21.4960   -6.8160    0.1780 C.3    40  ARG40       0.0307
     58  CG       -22.9040   -6.5340   -0.2540 C.3    40  ARG40       0.0489
     59  CD       -23.6710   -7.8220   -0.5120 C.3    40  ARG40       0.2205
     60  NE       -24.8150   -7.6050   -1.3970 N.pl3  40  ARG40      -0.0865
     61  CZ       -25.9260   -8.3350   -1.3660 C.cat  40  ARG40       0.5346
     62  NH1      -26.0540   -9.3240   -0.4810 N.pl3  40  ARG40       0.1354
     63  NH2      -26.9140   -8.0710   -2.2130 N.pl3  40  ARG40       0.1354
     64  N        -29.4410   -8.5550    4.7390 N.3    52  LEU52      -0.1245
     65  CA       -30.1430   -8.9660    3.5230 C.3    52  LEU52       0.1561
     66  C        -30.2890  -10.4860    3.4410 C.2    52  LEU52       0.2260
     67  O        -31.2740  -10.9870    2.8880 O.2    52  LEU52      -0.2867
     68  CB       -29.4080   -8.4640    2.2800 C.3    52  LEU52       0.0270
     69  CG       -29.4030   -6.9700    1.9660 C.3    52  LEU52       0.0019
     70  CD1      -28.4370   -6.6700    0.8390 C.3    52  LEU52       0.0001
     71  CD2      -30.7900   -6.5060    1.6060 C.3    52  LEU52       0.0001
     72  N        -30.4470    0.3290    9.6810 N.3    63  VAL63      -0.1231
     73  CA       -30.1820   -0.1220    8.3320 C.3    63  VAL63       0.1692
     74  C        -30.1630    1.0880    7.4150 C.2    63  VAL63       0.2592
     75  O        -29.3010    1.1900    6.5520 O.2    63  VAL63      -0.2718
     76  CB       -31.1550   -1.2450    7.8350 C.3    63  VAL63       0.0266
     77  CG1      -31.5840   -2.1350    8.9790 C.3    63  VAL63       0.0020
     78  CG2      -32.3700   -0.6710    7.1240 C.3    63  VAL63       0.0020
     79  N        -31.0830    2.0260    7.6230 N.am   64  ASN64      -0.1974
     80  CA       -31.1220    3.2130    6.7770 C.3    64  ASN64       0.1688
     81  C        -29.7640    3.8840    6.7340 C.2    64  ASN64       0.2292
     82  O        -29.3180    4.3190    5.6640 O.2    64  ASN64      -0.2864
     83  CB       -32.1820    4.2150    7.2370 C.3    64  ASN64       0.1181
     84  CG       -33.5880    3.8040    6.8430 C.2    64  ASN64       0.2629
     85  OD1      -33.8490    2.6400    6.5440 O.2    64  ASN64      -0.2716
     86  ND2      -34.5060    4.7590    6.8540 N.am   64  ASN64      -0.0877
     87  N        -26.6100    1.8370    4.9830 N.3    67  PHE67      -0.1241
     88  CA       -26.6240    1.9950    3.5420 C.3    67  PHE67       0.1605
     89  C        -26.0570    3.3380    3.1290 C.2    67  PHE67       0.2264
     90  O        -25.2520    3.4340    2.2060 O.2    67  PHE67      -0.2867
     91  CB       -28.0500    1.8720    3.0300 C.3    67  PHE67       0.0534
     92  CG       -28.4680    0.4660    2.7430 C.ar   67  PHE67      -0.0203
     93  CD1      -27.9320   -0.2220    1.6710 C.ar   67  PHE67      -0.0042
     94  CD2      -29.4070   -0.1580    3.5290 C.ar   67  PHE67      -0.0042
     95  CE1      -28.3150   -1.5030    1.3950 C.ar   67  PHE67      -0.0003
     96  CE2      -29.7990   -1.4370    3.2610 C.ar   67  PHE67      -0.0003
     97  CZ       -29.2520   -2.1130    2.1940 C.ar   67  PHE67      -0.0000
     98  N        -22.4080    4.3810    1.2860 N.3    71  ARG71      -0.1245
     99  CA       -22.1410    5.2040    0.1140 C.3    71  ARG71       0.1563
    100  C        -21.0260    6.2200    0.3990 C.2    71  ARG71       0.2260
    101  O        -20.0610    6.3250   -0.3690 O.2    71  ARG71      -0.2867
    102  CB       -23.4250    5.8820   -0.4160 C.3    71  ARG71       0.0307
    103  CG       -24.3140    4.9760   -1.3030 C.3    71  ARG71       0.0489
    104  CD       -25.6500    5.6470   -1.6990 C.3    71  ARG71       0.2205
    105  NE       -26.5790    5.7560   -0.5760 N.pl3  71  ARG71      -0.0865
    106  CZ       -27.4260    4.7960   -0.2070 C.cat  71  ARG71       0.5346
    107  NH1      -27.4810    3.6510   -0.8840 N.pl3  71  ARG71       0.1354
    108  NH2      -28.2200    4.9810    0.8430 N.pl3  71  ARG71       0.1354
    109  N        -24.2670    0.8480  -10.1320 N.3    91  ASP91      -0.1225
    110  CA       -25.4340    0.0200   -9.8430 C.3    91  ASP91       0.1805
    111  C        -25.9950    0.4740   -8.4970 C.2    91  ASP91       0.2597
    112  O        -25.3100    0.3590   -7.4840 O.2    91  ASP91      -0.2718
    113  CB       -24.9780   -1.4400   -9.7770 C.3    91  ASP91       0.1424
    114  CG       -26.0930   -2.4260  -10.0370 C.2    91  ASP91       0.3668
    115  OD1      -27.2760   -2.0250  -10.0370 O.co2  91  ASP91      -0.2456
    116  OD2      -25.7790   -3.6170  -10.2370 O.co2  91  ASP91      -0.2456
    117  N        -27.2150    1.0140   -8.4940 N.am   92  ARG92      -0.1979
    118  CA       -27.8540    1.6020   -7.2870 C.3    92  ARG92       0.1597
    119  C        -27.1060    2.7710   -6.6530 C.2    92  ARG92       0.2287
    120  O        -25.8960    2.8210   -6.6780 O.2    92  ARG92      -0.2864
    121  CB       -28.1420    0.5430   -6.2030 C.3    92  ARG92       0.0334
    122  CG       -29.1240   -0.5310   -6.6210 C.3    92  ARG92       0.0492
    123  CD       -29.5390   -1.3730   -5.4670 C.3    92  ARG92       0.2205
    124  NE       -30.4830   -2.3910   -5.8760 N.pl3  92  ARG92      -0.0865
    125  CZ       -31.7560   -2.1520   -6.1950 C.cat  92  ARG92       0.5346
    126  NH1      -32.2570   -0.9160   -6.1740 N.pl3  92  ARG92       0.1354
    127  NH2      -32.5240   -3.1640   -6.5630 N.pl3  92  ARG92       0.1354
    128  N        -31.8350    4.3800   -4.5200 N.3    96  SER96      -0.1202
    129  CA       -32.0850    3.0770   -3.9170 C.3    96  SER96       0.2020
    130  C        -32.3320    3.2690   -2.4200 C.2    96  SER96       0.2619
    131  O        -33.2400    2.6610   -1.8520 O.2    96  SER96      -0.2717
    132  CB       -30.9160    2.1220   -4.1670 C.3    96  SER96       0.2103
    133  OG       -31.0950    1.3560   -5.3430 O.3    96  SER96      -0.2182
    134  N        -31.5230    4.1360   -1.8040 N.am   97  GLY97      -0.1956
    135  CA       -31.6430    4.4710   -0.4010 C.3    97  GLY97       0.1869
    136  C        -32.9960    5.0410   -0.0250 C.2    97  GLY97       0.2309
    137  O        -33.7390    4.4320    0.7410 O.2    97  GLY97      -0.2863
    138  N        -36.2430    2.8250   -0.8700 N.3   100  TYR100     -0.1227
    139  CA       -36.3740    1.6400   -0.0550 C.3   100  TYR100      0.1736
    140  C        -36.6050    2.0220    1.3960 C.2   100  TYR100      0.2595
    141  O        -37.4050    1.3880    2.0750 O.2   100  TYR100     -0.2718
    142  CB       -35.1500    0.7470   -0.2070 C.3   100  TYR100      0.0548
    143  CG       -35.2160   -0.1800   -1.3900 C.ar  100  TYR100     -0.0200
    144  CD1      -34.9630    0.2820   -2.6810 C.ar  100  TYR100     -0.0009
    145  CD2      -35.5220   -1.5240   -1.2200 C.ar  100  TYR100     -0.0009
    146  CE1      -35.0150   -0.5780   -3.7750 C.ar  100  TYR100      0.0417
    147  CE2      -35.5760   -2.3910   -2.2970 C.ar  100  TYR100      0.0417
    148  CZ       -35.3240   -1.9210   -3.5750 C.ar  100  TYR100      0.1957
    149  OH       -35.3930   -2.7960   -4.6480 O.3   100  TYR100     -0.2866
    150  N        -35.9100    3.0540    1.8720 N.am  101  ALA101     -0.1980
    151  CA       -36.1270    3.5470    3.2330 C.3   101  ALA101      0.1597
    152  C        -37.5640    4.0970    3.3800 C.2   101  ALA101      0.2287
    153  O        -38.2580    3.7980    4.3700 O.2   101  ALA101     -0.2864
    154  CB       -35.0900    4.6030    3.6090 C.3   101  ALA101      0.0319
    155  N        -40.4340    1.6430    3.5360 N.3   104  LYS104     -0.1245
    156  CA       -40.5120    1.0860    4.8870 C.3   104  LYS104      0.1561
    157  C        -41.0580    2.0870    5.9090 C.2   104  LYS104      0.2260
    158  O        -40.8960    1.9120    7.1100 O.2   104  LYS104     -0.2867
    159  CB       -39.1330    0.6090    5.3550 C.3   104  LYS104      0.0271
    160  CG       -38.9540   -0.9060    5.3930 C.3   104  LYS104      0.0035
    161  CD       -37.5710   -1.3590    4.8410 C.3   104  LYS104      0.0206
    162  CE       -36.4090   -1.3070    5.8610 C.3   104  LYS104      0.1093
    163  NZ       -35.8750    0.0690    6.0900 N.3   104  LYS104     -0.1314
    164  N        -33.5300  -12.8630   -0.8590 N.3   141  GLU141     -0.1245
    165  CA       -33.0070  -11.7950   -0.0050 C.3   141  GLU141      0.1567
    166  C        -34.1140  -10.9450    0.6260 C.2   141  GLU141      0.2260
    167  O        -35.2810  -11.0500    0.2650 O.2   141  GLU141     -0.2867
    168  CB       -31.9720  -10.9320   -0.7360 C.3   141  GLU141      0.0388
    169  CG       -30.6380  -11.6430   -0.9320 C.3   141  GLU141      0.1160
    170  CD       -29.5060  -10.7130   -1.3210 C.2   141  GLU141      0.3649
    171  OE1      -29.7870   -9.6460   -1.9260 O.co2 141  GLU141     -0.2457
    172  OE2      -28.3320  -11.0650   -1.0280 O.co2 141  GLU141     -0.2457
    173  N        -35.4670   -7.7690    0.9490 N.3   143  TYR143     -0.1227
    174  CA       -36.4530   -6.9150    0.3140 C.3   143  TYR143      0.1736
    175  C        -37.0900   -7.5450   -0.9170 C.2   143  TYR143      0.2595
    176  O        -37.9540   -6.9240   -1.5310 O.2   143  TYR143     -0.2718
    177  CB       -35.8250   -5.6100   -0.1080 C.3   143  TYR143      0.0548
    178  CG       -35.3030   -4.7850    1.0220 C.ar  143  TYR143     -0.0200
    179  CD1      -36.1700   -4.1060    1.8430 C.ar  143  TYR143     -0.0009
    180  CD2      -33.9360   -4.6530    1.2570 C.ar  143  TYR143     -0.0009
    181  CE1      -35.7070   -3.3160    2.8870 C.ar  143  TYR143      0.0417
    182  CE2      -33.4600   -3.8530    2.3000 C.ar  143  TYR143      0.0417
    183  CZ       -34.3630   -3.1830    3.1130 C.ar  143  TYR143      0.1957
    184  OH       -33.9520   -2.3810    4.1660 O.3   143  TYR143     -0.2866
    185  N        -36.6630   -8.7560   -1.2830 N.am  144  GLU144     -0.1979
    186  CA       -37.1770   -9.4280   -2.4840 C.3   144  GLU144      0.1602
    187  C        -38.6060  -10.0070   -2.3460 C.2   144  GLU144      0.2287
    188  O        -38.8320  -11.2170   -2.4110 O.2   144  GLU144     -0.2864
    189  CB       -36.1770  -10.4760   -2.9870 C.3   144  GLU144      0.0415
    190  CG       -34.8960   -9.8690   -3.5270 C.3   144  GLU144      0.1163
    191  CD       -33.9030  -10.9150   -3.9690 C.2   144  GLU144      0.3649
    192  OE1      -34.2780  -12.1060   -3.9530 O.co2 144  GLU144     -0.2457
    193  OE2      -32.7580  -10.5550   -4.3350 O.co2 144  GLU144     -0.2457
@<TRIPOS>BOND
     1    21    20    2
     2    19    20    1
     3    19    18    1
     4    19    22    1
     5    22    23    1
     6    12    11    2
     7    11    10    1
     8    23    24    1
     9    24    25    1
    10    10    13    1
    11    10     9    1
    12    13    14    1
    13   116   114   ar
    14   109   110    1
    15   115   114   ar
    16   114   113    1
    17   110   113    1
    18   110   111    1
    19     9     3   am
    20    25    26    1
    21     4     3    2
    22    15    14    1
    23    15    16    1
    24     3     2    1
    25   111   117   am
    26   111   112    2
    27   117   118    1
    28    34    32   am
    29    27    28    1
    30     2     1    1
    31     2     5    1
    32    17    16    1
    33    32    31    1
    34    32    33    2
    35    28    31    1
    36    28    29    1
    37   118   119    1
    38   118   121    1
    39   120   119    2
    40   122   121    1
    41   122   123    1
    42   127   125    1
    43     5     6    1
    44   125   126    1
    45   125   124    2
    46    29    35   am
    47    29    30    2
    48   124   123    1
    49    35    36    1
    50     6     7   ar
    51     6     8   ar
    52   133   132    1
    53    41    43   ar
    54    41    40   ar
    55    43    45   ar
    56    38    37    2
    57   149   148    1
    58   128   129    1
    59   193   191   ar
    60    36    39    1
    61    36    37    1
    62   132   129    1
    63    39    40    1
    64    40    42   ar
    65    37    46   am
    66   191   192   ar
    67   191   190    1
    68   129   130    1
    69    45    44   ar
    70   146   148   ar
    71   146   144   ar
    72   148   147   ar
    73   190   189    1
    74   189   186    1
    75    42    44   ar
    76    46    52    1
    77    46    47    1
    78   144   143   ar
    79    49    48    2
    80   186   187    1
    81   186   185    1
    82   130   131    2
    83   130   134   am
    84   188   187    2
    85    52    51    1
    86   147   145   ar
    87    63    61    1
    88    48    47    1
    89   171   170   ar
    90   134   135    1
    91    47    50    1
    92   104   103    1
    93   104   105    1
    94   176   175    2
    95    60    61    2
    96    60    59    1
    97   143   145   ar
    98   143   142    1
    99    61    62    1
   100   170   172   ar
   101   170   169    1
   102   103   102    1
   103   185   175   am
   104   169   168    1
   105   175   174    1
   106   107   106    1
   107   138   139    1
   108   164   165    1
   109    51    50    1
   110   168   165    1
   111   105   106    2
   112    53    54    1
   113    59    58    1
   114   102    99    1
   115   135   136    1
   116   101   100    2
   117    58    57    1
   118   142   139    1
   119   106   108    1
   120   177   174    1
   121   177   178    1
   122   139   140    1
   123   136   137    2
   124   165   166    1
   125    99   100    1
   126    99    98    1
   127    57    54    1
   128   167   166    2
   129   174   173    1
   130    54    55    1
   131    70    69    1
   132   178   180   ar
   133   178   179   ar
   134    55    56    2
   135   180   182   ar
   136    95    93   ar
   137    95    97   ar
   138   140   150   am
   139   140   141    2
   140    71    69    1
   141    93    92   ar
   142   179   181   ar
   143   150   151    1
   144    69    68    1
   145    97    96   ar
   146    90    89    2
   147    68    65    1
   148   182   183   ar
   149    92    91    1
   150    92    94   ar
   151   181   183   ar
   152    67    66    2
   153    91    88    1
   154   183   184    1
   155    89    88    1
   156   151   152    1
   157   151   154    1
   158    96    94   ar
   159   152   153    2
   160    66    65    1
   161    65    64    1
   162   155   156    1
   163    88    87    1
   164   161   160    1
   165   161   162    1
   166   156   159    1
   167   156   157    1
   168   159   160    1
   169    82    81    2
   170   162   163    1
   171   157   158    2
   172    85    84    2
   173    75    74    2
   174    81    80    1
   175    80    83    1
   176    80    79    1
   177    84    86   am
   178    84    83    1
   179    78    76    1
   180    74    79   am
   181    74    73    1
   182    76    73    1
   183    76    77    1
   184    73    72    1
