@<TRIPOS>MOLECULE
tmp/2w0uC00.pdb
 145 139 0 0 0
SMALL
GASTEIGER

@<TRIPOS>ATOM
      1  N        -43.2830    2.4050  -73.3410 N.3    23  TYR23      -0.1241
      2  CA       -42.3390    2.4200  -72.2290 C.3    23  TYR23       0.1605
      3  C        -42.7010    3.4660  -71.1520 C.2    23  TYR23       0.2264
      4  O        -42.6200    3.1780  -69.9570 O.2    23  TYR23      -0.2867
      5  CB       -40.8970    2.6130  -72.7230 C.3    23  TYR23       0.0534
      6  CG       -39.9660    3.0350  -71.6130 C.ar   23  TYR23      -0.0201
      7  CD1      -39.5370    2.1170  -70.6500 C.ar   23  TYR23      -0.0009
      8  CD2      -39.5480    4.3610  -71.4960 C.ar   23  TYR23      -0.0009
      9  CE1      -38.7060    2.5050  -69.6110 C.ar   23  TYR23       0.0417
     10  CE2      -38.7170    4.7580  -70.4640 C.ar   23  TYR23       0.0417
     11  CZ       -38.3020    3.8260  -69.5220 C.ar   23  TYR23       0.1957
     12  OH       -37.4740    4.2180  -68.4900 O.3    23  TYR23      -0.2866
     13  N        -36.5520    8.1590  -65.7690 N.3    78  ALA78      -0.1231
     14  CA       -35.3350    7.8220  -66.5170 C.3    78  ALA78       0.1694
     15  C        -35.4400    8.1000  -68.0180 C.2    78  ALA78       0.2591
     16  O        -36.5350    8.1190  -68.5860 O.2    78  ALA78      -0.2718
     17  CB       -34.9730    6.3580  -66.2910 C.3    78  ALA78       0.0304
     18  N        -34.2830    8.3230  -68.6410 N.am   79  MET79      -0.1979
     19  CA       -34.1270    8.3310  -70.1030 C.3    79  MET79       0.1605
     20  C        -35.0340    9.3380  -70.8170 C.2    79  MET79       0.2287
     21  O        -35.7910    8.9710  -71.7250 O.2    79  MET79      -0.2864
     22  CB       -34.3230    6.9150  -70.6750 C.3    79  MET79       0.0413
     23  CG       -33.6160    5.8180  -69.8830 C.3    79  MET79       0.0598
     24  SD       -33.5050    4.2080  -70.7000 S.3    79  MET79      -0.1393
     25  CE       -35.2170    3.7150  -70.9010 C.3    79  MET79       0.0692
     26  N        -33.3250   11.6850  -62.1610 N.3   105  SER105     -0.1202
     27  CA       -33.5300   10.2440  -62.1380 C.3   105  SER105      0.2020
     28  C        -32.2140    9.5000  -62.2700 C.2   105  SER105      0.2619
     29  O        -31.2380   10.0210  -62.8080 O.2   105  SER105     -0.2717
     30  CB       -34.4790    9.8370  -63.2760 C.3   105  SER105      0.2103
     31  OG       -34.8110    8.4590  -63.2390 O.3   105  SER105     -0.2182
     32  N        -32.1950    8.2840  -61.7410 N.am  106  SER106     -0.1937
     33  CA       -31.1530    7.3260  -62.0430 C.3   106  SER106      0.2055
     34  C        -31.4110    6.9030  -63.4770 C.2   106  SER106      0.2643
     35  O        -32.5660    6.9090  -63.9140 O.2   106  SER106     -0.2714
     36  CB       -31.2780    6.1220  -61.1210 C.3   106  SER106      0.2130
     37  OG       -32.6060    5.6170  -61.1710 O.3   106  SER106     -0.2179
     38  N        -30.3490    6.5320  -64.1960 N.am  107  TRP107     -0.1973
     39  CA       -30.4140    6.2350  -65.6420 C.3   107  TRP107      0.1640
     40  C        -30.9160    7.4250  -66.4570 C.2   107  TRP107      0.2290
     41  O        -31.6190    7.2640  -67.4640 O.2   107  TRP107     -0.2864
     42  CB       -31.2350    4.9770  -65.9370 C.3   107  TRP107      0.0576
     43  CG       -30.4440    3.7460  -65.7530 C.ar  107  TRP107      0.0006
     44  CD1      -29.4880    3.2590  -66.5940 C.ar  107  TRP107      0.0946
     45  CD2      -30.5190    2.8310  -64.6500 C.ar  107  TRP107      0.0152
     46  NE1      -28.9620    2.0920  -66.0880 N.ar  107  TRP107     -0.2442
     47  CE2      -29.5730    1.8080  -64.8930 C.ar  107  TRP107      0.0810
     48  CE3      -31.2880    2.7790  -63.4790 C.ar  107  TRP107      0.0012
     49  CZ2      -29.3750    0.7390  -64.0070 C.ar  107  TRP107      0.0191
     50  CZ3      -31.0950    1.7180  -62.6000 C.ar  107  TRP107      0.0001
     51  CH2      -30.1470    0.7100  -62.8700 C.ar  107  TRP107      0.0015
     52  N        -30.2920    4.6340  -56.3910 N.3   129  TYR129     -0.1241
     53  CA       -30.3650    3.2800  -55.8630 C.3   129  TYR129      0.1605
     54  C        -29.0790    2.9640  -55.1090 C.2   129  TYR129      0.2264
     55  O        -28.0300    3.5430  -55.3880 O.2   129  TYR129     -0.2867
     56  CB       -30.5500    2.2700  -56.9920 C.3   129  TYR129      0.0534
     57  CG       -31.9080    2.3210  -57.6550 C.ar  129  TYR129     -0.0201
     58  CD1      -32.9990    1.6370  -57.1120 C.ar  129  TYR129     -0.0009
     59  CD2      -32.1020    3.0440  -58.8360 C.ar  129  TYR129     -0.0009
     60  CE1      -34.2460    1.6860  -57.7220 C.ar  129  TYR129      0.0417
     61  CE2      -33.3480    3.0940  -59.4520 C.ar  129  TYR129      0.0417
     62  CZ       -34.4100    2.4150  -58.8870 C.ar  129  TYR129      0.1957
     63  OH       -35.6340    2.4660  -59.4970 O.3   129  TYR129     -0.2866
     64  N        -37.5110   -1.2630  -55.5890 N.3   158  THR158     -0.1218
     65  CA       -37.0550   -1.9300  -56.8080 C.3   158  THR158      0.1862
     66  C        -35.8790   -2.8980  -56.5650 C.2   158  THR158      0.2287
     67  O        -34.7720   -2.6860  -57.0810 O.2   158  THR158     -0.2866
     68  CB       -36.7370   -0.8970  -57.9300 C.3   158  THR158      0.1770
     69  OG1      -37.7960    0.0640  -58.0040 O.3   158  THR158     -0.2211
     70  CG2      -36.5760   -1.5770  -59.2920 C.3   158  THR158      0.0375
     71  N        -36.7690   -5.3110  -61.2820 N.3   161  LEU161     -0.1245
     72  CA       -37.6560   -4.4940  -62.0950 C.3   161  LEU161      0.1561
     73  C        -39.0380   -5.1320  -62.1880 C.2   161  LEU161      0.2260
     74  O        -39.1630   -6.3600  -62.2580 O.2   161  LEU161     -0.2867
     75  CB       -37.0790   -4.2940  -63.4960 C.3   161  LEU161      0.0270
     76  CG       -37.5960   -3.0480  -64.2140 C.3   161  LEU161      0.0019
     77  CD1      -36.8030   -1.8130  -63.7800 C.3   161  LEU161      0.0001
     78  CD2      -37.5520   -3.2190  -65.7300 C.3   161  LEU161      0.0001
     79  N        -43.4670   -5.2330  -66.9390 N.3   164  ARG164     -0.1245
     80  CA       -44.3050   -4.3800  -67.7880 C.3   164  ARG164      0.1563
     81  C        -44.5650   -5.0670  -69.1170 C.2   164  ARG164      0.2260
     82  O        -43.6970   -5.0700  -69.9910 O.2   164  ARG164     -0.2867
     83  CB       -43.6230   -3.0300  -68.0180 C.3   164  ARG164      0.0307
     84  CG       -43.4040   -2.2360  -66.7460 C.3   164  ARG164      0.0489
     85  CD       -42.1400   -1.4100  -66.8150 C.3   164  ARG164      0.2205
     86  NE       -41.5880   -1.2130  -65.4760 N.pl3 164  ARG164     -0.0865
     87  CZ       -40.3710   -0.7420  -65.2200 C.cat 164  ARG164      0.5346
     88  NH1      -39.5550   -0.4030  -66.2150 N.pl3 164  ARG164      0.1354
     89  NH2      -39.9700   -0.6070  -63.9610 N.pl3 164  ARG164      0.1354
     90  N        -34.7510   -4.7720  -70.5560 N.3   174  LEU174     -0.1245
     91  CA       -34.4720   -3.7630  -69.5330 C.3   174  LEU174      0.1561
     92  C        -34.2520   -4.3740  -68.1380 C.2   174  LEU174      0.2260
     93  O        -33.5320   -3.8030  -67.3110 O.2   174  LEU174     -0.2867
     94  CB       -35.6080   -2.7300  -69.4990 C.3   174  LEU174      0.0270
     95  CG       -35.2990   -1.2440  -69.2480 C.3   174  LEU174      0.0019
     96  CD1      -34.7120   -0.5640  -70.4800 C.3   174  LEU174      0.0001
     97  CD2      -36.5580   -0.5170  -68.8190 C.3   174  LEU174      0.0001
     98  N        -30.3480   -5.5770  -67.0470 N.3   177  TYR177     -0.1227
     99  CA       -29.4530   -4.4820  -66.6520 C.3   177  TYR177      0.1736
    100  C        -29.6750   -4.0990  -65.1880 C.2   177  TYR177      0.2595
    101  O        -28.7420   -3.6940  -64.4830 O.2   177  TYR177     -0.2718
    102  CB       -29.7100   -3.2490  -67.5220 C.3   177  TYR177      0.0548
    103  CG       -29.1950   -3.3060  -68.9480 C.ar  177  TYR177     -0.0200
    104  CD1      -28.0470   -2.6000  -69.3200 C.ar  177  TYR177     -0.0009
    105  CD2      -29.8730   -4.0300  -69.9340 C.ar  177  TYR177     -0.0009
    106  CE1      -27.5750   -2.6290  -70.6340 C.ar  177  TYR177      0.0417
    107  CE2      -29.4070   -4.0720  -71.2520 C.ar  177  TYR177      0.0417
    108  CZ       -28.2600   -3.3670  -71.5940 C.ar  177  TYR177      0.1957
    109  OH       -27.7960   -3.3970  -72.8890 O.3   177  TYR177     -0.2866
    110  N        -30.9330   -4.2170  -64.7620 N.am  178  VAL178     -0.1980
    111  CA       -31.3680   -3.9110  -63.4030 C.3   178  VAL178      0.1595
    112  C        -30.8180   -4.9470  -62.4290 C.2   178  VAL178      0.2287
    113  O        -30.3280   -4.5940  -61.3550 O.2   178  VAL178     -0.2864
    114  CB       -32.9290   -3.8550  -63.3150 C.3   178  VAL178      0.0276
    115  CG1      -33.4220   -3.8500  -61.8610 C.3   178  VAL178      0.0022
    116  CG2      -33.4720   -2.6440  -64.0720 C.3   178  VAL178      0.0022
    117  N        -28.6330   -3.3060  -59.7300 N.3   182  ILE182     -0.1245
    118  CA       -29.3640   -3.0460  -58.4870 C.3   182  ILE182      0.1561
    119  C        -29.3200   -4.2140  -57.5100 C.2   182  ILE182      0.2260
    120  O        -29.6550   -5.3450  -57.8620 O.2   182  ILE182     -0.2867
    121  CB       -30.8290   -2.5820  -58.7390 C.3   182  ILE182      0.0252
    122  CG1      -30.8800   -1.5940  -59.9110 C.3   182  ILE182      0.0019
    123  CG2      -31.4250   -1.9720  -57.4610 C.3   182  ILE182      0.0019
    124  CD1      -32.1990   -0.8890  -60.0960 C.3   182  ILE182      0.0001
    125  N        -44.0860    3.8600  -57.5470 N.3   229  HIS229     -0.1241
    126  CA       -43.1780    3.8200  -58.7090 C.3   229  HIS229      0.1621
    127  C        -43.9540    3.9720  -60.0290 C.2   229  HIS229      0.2264
    128  O        -43.6250    3.3320  -61.0320 O.2   229  HIS229     -0.2867
    129  CB       -42.3470    2.5130  -58.7060 C.3   229  HIS229      0.0745
    130  CG       -41.0070    2.6280  -59.3760 C.ar  229  HIS229      0.0817
    131  ND1      -39.8170    2.5110  -58.6860 N.ar  229  HIS229     -0.2268
    132  CD2      -40.6700    2.8220  -60.6760 C.ar  229  HIS229      0.1154
    133  CE1      -38.8070    2.6390  -59.5280 C.ar  229  HIS229      0.1986
    134  NE2      -39.2970    2.8310  -60.7410 N.ar  229  HIS229     -0.2212
    135  N        -45.5140    0.8090  -61.5130 N.3   232  ARG232     -0.1245
    136  CA       -44.6540    0.0990  -62.4580 C.3   232  ARG232      0.1563
    137  C        -43.9030   -1.0880  -61.8600 C.2   232  ARG232      0.2260
    138  O        -43.2340   -1.8270  -62.5750 O.2   232  ARG232     -0.2867
    139  CB       -43.7010    1.0860  -63.1400 C.3   232  ARG232      0.0307
    140  CG       -44.4380    2.0900  -64.0150 C.3   232  ARG232      0.0489
    141  CD       -43.6950    3.3920  -64.1700 C.3   232  ARG232      0.2205
    142  NE       -42.4520    3.2490  -64.9290 N.pl3 232  ARG232     -0.0865
    143  CZ       -42.3710    3.1710  -66.2560 C.cat 232  ARG232      0.5346
    144  NH1      -43.4670    3.2030  -67.0110 N.pl3 232  ARG232      0.1354
    145  NH2      -41.1790    3.0500  -66.8270 N.pl3 232  ARG232      0.1354
@<TRIPOS>BOND
     1     1     2    1
     2   109   108    1
     3     5     2    1
     4     5     6    1
     5     2     3    1
     6    21    20    2
     7     6     8   ar
     8     6     7   ar
     9   108   107   ar
    10   108   106   ar
    11     8    10   ar
    12   107   105   ar
    13     3     4    2
    14    25    24    1
    15    20    19    1
    16    24    23    1
    17    22    19    1
    18    22    23    1
    19     7     9   ar
    20   106   104   ar
    21    90    91    1
    22    96    95    1
    23    10    11   ar
    24    19    18    1
    25    82    81    2
    26   105   103   ar
    27     9    11   ar
    28    91    94    1
    29    91    92    1
    30    11    12    1
    31    94    95    1
    32   104   103   ar
    33    95    97    1
    34    81    80    1
    35   103   102    1
    36    18    15   am
    37    16    15    2
    38    92    93    2
    39    15    14    1
    40    83    80    1
    41    83    84    1
    42    80    79    1
    43   102    99    1
    44    41    40    2
    45    98    99    1
    46   144   143    1
    47   145   143    1
    48    85    84    1
    49    85    86    1
    50    99   100    1
    51    44    46   ar
    52    44    43   ar
    53    14    17    1
    54    14    13    1
    55    40    39    1
    56   143   142    2
    57    88    87    1
    58    46    47   ar
    59    42    43    1
    60    42    39    1
    61    43    45   ar
    62    78    76    1
    63    39    38    1
    64    86    87    2
    65    87    89    1
    66   100   110   am
    67   100   101    2
    68   142   141    1
    69    47    45   ar
    70    47    49   ar
    71   110   111    1
    72    45    48   ar
    73    76    77    1
    74    76    75    1
    75    38    34   am
    76   141   140    1
    77   116   114    1
    78   140   139    1
    79    49    51   ar
    80    35    34    2
    81    75    72    1
    82    48    50   ar
    83    34    33    1
    84   111   114    1
    85   111   112    1
    86   114   115    1
    87    30    31    1
    88    30    27    1
    89   139   136    1
    90    51    50   ar
    91    29    28    2
    92   138   137    2
    93   136   137    1
    94   136   135    1
    95   112   113    2
    96    28    27    1
    97    28    32   am
    98    74    73    2
    99    73    72    1
   100    26    27    1
   101    72    71    1
   102    33    32    1
   103    33    36    1
   104    37    36    1
   105   128   127    2
   106   134   132   ar
   107   134   133   ar
   108   132   130   ar
   109   124   122    1
   110   127   126    1
   111   122   121    1
   112   117   118    1
   113   133   131   ar
   114    63    62    1
   115    61    62   ar
   116    61    59   ar
   117   130   129    1
   118   130   131   ar
   119    70    68    1
   120    62    60   ar
   121    59    57   ar
   122   121   118    1
   123   121   123    1
   124   126   129    1
   125   126   125    1
   126   118   119    1
   127    69    68    1
   128    68    65    1
   129   120   119    2
   130    60    58   ar
   131    57    58   ar
   132    57    56    1
   133    67    66    2
   134    56    53    1
   135    65    66    1
   136    65    64    1
   137    52    53    1
   138    53    54    1
   139    55    54    2
