@<TRIPOS>MOLECULE
tmp/2w0vA00.pdb
 185 172 0 0 0
SMALL
GASTEIGER

@<TRIPOS>ATOM
      1  N         85.6260   40.7580   32.7630 N.3     8  LEU8       -0.1231
      2  CA        86.1780   39.4110   32.7400 C.3     8  LEU8        0.1693
      3  C         85.4740   38.5690   31.6800 C.2     8  LEU8        0.2592
      4  O         84.2630   38.3550   31.7410 O.2     8  LEU8       -0.2718
      5  CB        86.0820   38.7740   34.1240 C.3     8  LEU8        0.0284
      6  CG        87.1010   39.4430   35.0620 C.3     8  LEU8        0.0019
      7  CD1       86.6170   39.5500   36.4670 C.3     8  LEU8        0.0001
      8  CD2       88.4120   38.7060   34.9940 C.3     8  LEU8        0.0001
      9  N         86.2510   38.0730   30.7240 N.am    9  ALA9       -0.1966
     10  CA        85.6950   37.4370   29.5270 C.3     9  ALA9        0.1728
     11  C         86.4890   36.2320   29.0240 C.2     9  ALA9        0.2616
     12  O         86.3460   35.8370   27.8570 O.2     9  ALA9       -0.2715
     13  CB        85.5780   38.4770   28.4220 C.3     9  ALA9        0.0334
     14  N         87.2960   35.6320   29.8970 N.am   10  ALA10      -0.1963
     15  CA        88.2420   34.5930   29.4900 C.3    10  ALA10       0.1728
     16  C         87.7110   33.1600   29.5660 C.2    10  ALA10       0.2616
     17  O         88.3850   32.2340   29.1160 O.2    10  ALA10      -0.2715
     18  CB        89.5250   34.7070   30.2970 C.3    10  ALA10       0.0334
     19  N         86.5180   32.9670   30.1170 N.am   11  GLY11      -0.1955
     20  CA        85.9980   31.6230   30.3300 C.3    11  GLY11       0.1869
     21  C         85.7570   30.7890   29.0730 C.2    11  GLY11       0.2309
     22  O         85.2950   31.2990   28.0490 O.2    11  GLY11      -0.2863
     23  N         82.5850   31.2750   25.9060 N.3    22  LYS22      -0.1231
     24  CA        81.3800   31.5130   26.7070 C.3    22  LYS22       0.1693
     25  C         80.6660   32.8330   26.4110 C.2    22  LYS22       0.2591
     26  O         79.4520   32.8550   26.2020 O.2    22  LYS22      -0.2718
     27  CB        81.7620   31.4750   28.1870 C.3    22  LYS22       0.0285
     28  CG        80.6040   31.3900   29.1710 C.3    22  LYS22       0.0035
     29  CD        81.1300   31.4240   30.6020 C.3    22  LYS22       0.0206
     30  CE        80.1330   30.8540   31.5750 C.3    22  LYS22       0.1093
     31  NZ        80.5920   30.9410   32.9910 N.3    22  LYS22      -0.1314
     32  N         81.4170   33.9290   26.3700 N.am   23  VAL23      -0.1980
     33  CA        80.7950   35.2520   26.3590 C.3    23  VAL23       0.1595
     34  C         80.3590   35.7320   24.9680 C.2    23  VAL23       0.2287
     35  O         79.7790   36.7970   24.8510 O.2    23  VAL23      -0.2864
     36  CB        81.7010   36.3140   27.0220 C.3    23  VAL23       0.0276
     37  CG1       82.0860   35.8770   28.4350 C.3    23  VAL23       0.0022
     38  CG2       82.9370   36.5940   26.1720 C.3    23  VAL23       0.0022
     39  N         95.0710   37.0330   29.0620 N.3    73  GLN73      -0.1245
     40  CA        95.6240   36.2510   30.1650 C.3    73  GLN73       0.1566
     41  C         95.9630   34.8400   29.6910 C.2    73  GLN73       0.2260
     42  O         95.1520   34.1830   29.0310 O.2    73  GLN73      -0.2867
     43  CB        94.6960   36.2410   31.3850 C.3    73  GLN73       0.0367
     44  CG        93.3780   35.4970   31.2470 C.3    73  GLN73       0.0905
     45  CD        92.7660   35.1340   32.5920 C.2    73  GLN73       0.2608
     46  OE1       91.8200   34.3520   32.6510 O.2    73  GLN73      -0.2717
     47  NE2       93.3080   35.6910   33.6690 N.am   73  GLN73      -0.0878
     48  N         94.7630   30.7010   33.9040 N.3    76  GLN76      -0.1245
     49  CA        93.6230   30.9740   34.7770 C.3    76  GLN76       0.1566
     50  C         94.0030   30.6280   36.2180 C.2    76  GLN76       0.2260
     51  O         93.9890   29.4620   36.6170 O.2    76  GLN76      -0.2867
     52  CB        92.3900   30.1700   34.3090 C.3    76  GLN76       0.0367
     53  CG        91.0360   30.8650   34.5390 C.3    76  GLN76       0.0905
     54  CD        90.1000   30.7710   33.3390 C.2    76  GLN76       0.2608
     55  OE1       90.5210   30.9680   32.1970 O.2    76  GLN76      -0.2717
     56  NE2       88.8280   30.4770   33.5980 N.am   76  GLN76      -0.0878
     57  N         92.5670   32.5370   38.8460 N.3    78  GLY78      -0.1210
     58  CA        91.5640   33.2190   39.6510 C.3    78  GLY78       0.1956
     59  C         91.3030   34.6460   39.2090 C.2    78  GLY78       0.2612
     60  O         92.0920   35.2280   38.4680 O.2    78  GLY78      -0.2717
     61  N         90.2060   35.2150   39.6970 N.am   79  THR79      -0.1952
     62  CA        89.7300   36.5120   39.2170 C.3    79  THR79       0.1897
     63  C         90.5920   37.6830   39.6730 C.2    79  THR79       0.2313
     64  O         90.6780   38.6790   38.9730 O.2    79  THR79      -0.2863
     65  CB        88.2790   36.7550   39.6540 C.3    79  THR79       0.1794
     66  OG1       88.1640   36.5810   41.0710 O.3    79  THR79      -0.2208
     67  CG2       87.3520   35.7100   39.0800 C.3    79  THR79       0.0378
     68  N         93.3850   37.7770   37.3600 N.3    82  ALA82      -0.1245
     69  CA        92.8760   38.2580   36.0750 C.3    82  ALA82       0.1562
     70  C         92.8110   39.7810   36.0600 C.2    82  ALA82       0.2260
     71  O         93.3290   40.4240   35.1560 O.2    82  ALA82      -0.2867
     72  CB        91.4930   37.6730   35.8040 C.3    82  ALA82       0.0290
     73  N         81.3310   41.3510   34.6310 N.3   100  TYR100     -0.1241
     74  CA        81.4990   39.9870   34.1390 C.3   100  TYR100      0.1605
     75  C         80.8000   39.7990   32.7970 C.2   100  TYR100      0.2264
     76  O         79.6060   40.0790   32.6680 O.2   100  TYR100     -0.2867
     77  CB        80.9890   38.9970   35.1960 C.3   100  TYR100      0.0534
     78  CG        81.7370   39.1990   36.4940 C.ar  100  TYR100     -0.0201
     79  CD1       81.2460   40.0500   37.4750 C.ar  100  TYR100     -0.0009
     80  CD2       82.9910   38.6330   36.6890 C.ar  100  TYR100     -0.0009
     81  CE1       81.9520   40.2760   38.6470 C.ar  100  TYR100      0.0417
     82  CE2       83.7100   38.8550   37.8540 C.ar  100  TYR100      0.0417
     83  CZ        83.1870   39.6760   38.8290 C.ar  100  TYR100      0.1957
     84  OH        83.8970   39.8980   39.9870 O.3   100  TYR100     -0.2866
     85  N         79.8550   37.2270   31.2940 N.3   102  ASP102     -0.1225
     86  CA        78.8020   36.2100   31.2900 C.3   102  ASP102      0.1805
     87  C         77.5740   36.5950   32.1340 C.2   102  ASP102      0.2597
     88  O         76.6910   35.7730   32.3540 O.2   102  ASP102     -0.2718
     89  CB        79.3530   34.8320   31.7040 C.3   102  ASP102      0.1424
     90  CG        79.9110   34.7950   33.1340 C.2   102  ASP102      0.3668
     91  OD1       80.0630   35.8500   33.7870 O.co2 102  ASP102     -0.2456
     92  OD2       80.2450   33.7210   33.6800 O.co2 102  ASP102     -0.2456
     93  N         77.5230   37.8400   32.5850 N.am  103  ALA103     -0.1979
     94  CA        76.3750   38.3820   33.3070 C.3   103  ALA103      0.1597
     95  C         75.9660   39.6620   32.5920 C.2   103  ALA103      0.2287
     96  O         76.2710   40.7630   33.0470 O.2   103  ALA103     -0.2864
     97  CB        76.7360   38.6590   34.7610 C.3   103  ALA103      0.0319
     98  N         73.0250   41.0850   46.4790 N.3   128  VAL128     -0.1245
     99  CA        71.6550   40.7310   46.1120 C.3   128  VAL128      0.1561
    100  C         71.0390   39.7530   47.1090 C.2   128  VAL128      0.2260
    101  O         71.7400   38.9100   47.6720 O.2   128  VAL128     -0.2867
    102  CB        71.5970   40.1330   44.6840 C.3   128  VAL128      0.0252
    103  CG1       72.1030   38.6830   44.6590 C.3   128  VAL128      0.0019
    104  CG2       70.1890   40.2340   44.1220 C.3   128  VAL128      0.0019
    105  N         68.6760   36.5780   48.0010 N.3   130  LEU130     -0.1245
    106  CA        68.1920   35.3230   47.4440 C.3   130  LEU130      0.1561
    107  C         67.3380   34.5930   48.4770 C.2   130  LEU130      0.2260
    108  O         67.6260   34.6430   49.6770 O.2   130  LEU130     -0.2867
    109  CB        69.3720   34.4380   47.0510 C.3   130  LEU130      0.0270
    110  CG        70.1620   34.9030   45.8250 C.3   130  LEU130      0.0019
    111  CD1       71.5050   34.2070   45.7570 C.3   130  LEU130      0.0001
    112  CD2       69.3630   34.6560   44.5450 C.3   130  LEU130      0.0001
    113  N         76.5890   30.4790   48.1280 N.3   136  TYR136     -0.1241
    114  CA        77.1030   31.8240   47.8730 C.3   136  TYR136      0.1605
    115  C         77.5800   32.5120   49.1530 C.2   136  TYR136      0.2264
    116  O         77.0270   32.2860   50.2270 O.2   136  TYR136     -0.2867
    117  CB        76.0190   32.6830   47.2210 C.3   136  TYR136      0.0534
    118  CG        75.5130   32.1580   45.8890 C.ar  136  TYR136     -0.0201
    119  CD1       74.2630   31.5460   45.7840 C.ar  136  TYR136     -0.0009
    120  CD2       76.2760   32.2860   44.7330 C.ar  136  TYR136     -0.0009
    121  CE1       73.7890   31.0690   44.5570 C.ar  136  TYR136      0.0417
    122  CE2       75.8150   31.8090   43.5030 C.ar  136  TYR136      0.0417
    123  CZ        74.5700   31.2070   43.4230 C.ar  136  TYR136      0.1957
    124  OH        74.1140   30.7410   42.2090 O.3   136  TYR136     -0.2866
    125  N         73.9180   38.3850   49.5130 N.3   165  VAL165     -0.1231
    126  CA        74.9480   37.5470   48.9010 C.3   165  VAL165      0.1692
    127  C         75.8810   38.3880   48.0080 C.2   165  VAL165      0.2592
    128  O         75.5050   39.4620   47.5360 O.2   165  VAL165     -0.2718
    129  CB        74.2610   36.3650   48.1320 C.3   165  VAL165      0.0266
    130  CG1       74.9160   36.0470   46.8030 C.3   165  VAL165      0.0020
    131  CG2       74.1900   35.1180   49.0080 C.3   165  VAL165      0.0020
    132  N         77.1000   37.8940   47.8040 N.am  166  ASN166     -0.1960
    133  CA        78.1030   38.5640   46.9700 C.3   166  ASN166      0.1819
    134  C         77.8280   38.3220   45.4860 C.2   166  ASN166      0.2622
    135  O         77.5870   37.1850   45.0770 O.2   166  ASN166     -0.2715
    136  CB        79.5020   38.0450   47.3280 C.3   166  ASN166      0.1195
    137  CG        80.6090   38.7050   46.5190 C.2   166  ASN166      0.2630
    138  OD1       80.5280   39.8770   46.1640 O.2   166  ASN166     -0.2716
    139  ND2       81.6580   37.9500   46.2430 N.am  166  ASN166     -0.0877
    140  N         77.8630   39.3880   44.6900 N.am  167  THR167     -0.1937
    141  CA        77.7230   39.2820   43.2320 C.3   167  THR167      0.2028
    142  C         79.0520   39.3440   42.4800 C.2   167  THR167      0.2642
    143  O         79.0830   39.1060   41.2770 O.2   167  THR167     -0.2714
    144  CB        76.8420   40.4070   42.6760 C.3   167  THR167      0.1808
    145  OG1       77.5230   41.6650   42.8030 O.3   167  THR167     -0.2208
    146  CG2       75.5460   40.5600   43.4600 C.3   167  THR167      0.0379
    147  N         80.1250   39.7250   43.1710 N.am  168  GLY168     -0.1954
    148  CA        81.4340   39.8900   42.5570 C.3   168  GLY168      0.1869
    149  C         81.6650   41.2590   41.9360 C.2   168  GLY168      0.2309
    150  O         82.8010   41.6130   41.6100 O.2   168  GLY168     -0.2863
    151  N         67.4430   40.4220   40.6240 N.3   217  VAL217     -0.1245
    152  CA        68.4080   39.3190   40.6910 C.3   217  VAL217      0.1561
    153  C         68.9970   38.9820   39.3240 C.2   217  VAL217      0.2260
    154  O         70.1690   38.6170   39.2210 O.2   217  VAL217     -0.2867
    155  CB        67.7680   38.0290   41.2670 C.3   217  VAL217      0.0252
    156  CG1       68.7750   36.8610   41.2700 C.3   217  VAL217      0.0019
    157  CG2       67.2290   38.2750   42.6750 C.3   217  VAL217      0.0019
    158  N         72.4700   40.2830   37.9570 N.3   220  VAL220     -0.1231
    159  CA        73.7520   39.7700   38.4270 C.3   220  VAL220      0.1692
    160  C         73.8830   38.2670   38.2130 C.2   220  VAL220      0.2592
    161  O         74.8610   37.6550   38.6380 O.2   220  VAL220     -0.2718
    162  CB        73.9680   40.1200   39.9100 C.3   220  VAL220      0.0266
    163  CG1       74.0590   41.6290   40.0740 C.3   220  VAL220      0.0020
    164  CG2       72.8450   39.5390   40.7920 C.3   220  VAL220      0.0020
    165  N         72.8960   37.6780   37.5480 N.am  221  GLU221     -0.1966
    166  CA        72.9280   36.2600   37.2460 C.3   221  GLU221      0.1733
    167  C         73.7380   36.0460   35.9710 C.2   221  GLU221      0.2616
    168  O         73.5340   36.7380   34.9690 O.2   221  GLU221     -0.2715
    169  CB        71.5030   35.7190   37.0920 C.3   221  GLU221      0.0429
    170  CG        71.3540   34.2450   37.4300 C.3   221  GLU221      0.1163
    171  CD        71.4970   33.9470   38.9090 C.2   221  GLU221      0.3649
    172  OE1       72.4490   33.2280   39.2680 O.co2 221  GLU221     -0.2457
    173  OE2       70.6620   34.4180   39.7130 O.co2 221  GLU221     -0.2457
    174  N         74.6760   35.1080   36.0300 N.am  222  GLY222     -0.1955
    175  CA        75.4750   34.7290   34.8820 C.3   222  GLY222      0.1869
    176  C         74.8940   33.4880   34.2310 C.2   222  GLY222      0.2309
    177  O         74.0930   32.7780   34.8410 O.2   222  GLY222     -0.2863
    178  N         75.9430   29.9050   32.5620 N.3   224  ASN224     -0.1240
    179  CA        76.9860   28.8900   32.4320 C.3   224  ASN224      0.1653
    180  C         76.6250   27.8180   31.4090 C.2   224  ASN224      0.2266
    181  O         77.4820   27.0420   30.9840 O.2   224  ASN224     -0.2867
    182  CB        77.2430   28.2320   33.7920 C.3   224  ASN224      0.1155
    183  CG        77.7620   29.2150   34.8290 C.2   224  ASN224      0.2627
    184  OD1       78.6640   30.0020   34.5500 O.2   224  ASN224     -0.2716
    185  ND2       77.1900   29.1780   36.0270 N.am  224  ASN224     -0.0877
@<TRIPOS>BOND
     1    35    34    2
     2    34    33    1
     3    23    24    1
     4    38    36    1
     5    26    25    2
     6    33    32    1
     7    33    36    1
     8    32    25   am
     9    25    24    1
    10    24    27    1
    11    36    37    1
    12    12    11    2
    13    22    21    2
    14    27    28    1
    15    13    10    1
    16    11    10    1
    17    11    14   am
    18    42    41    2
    19    39    40    1
    20    21    20    1
    21    17    16    2
    22    28    29    1
    23    15    16    1
    24    15    14    1
    25    15    18    1
    26    10     9    1
    27    16    19   am
    28    41    40    1
    29    19    20    1
    30    40    43    1
    31    29    30    1
    32     9     3   am
    33   181   180    2
    34    44    43    1
    35    44    45    1
    36    86    85    1
    37    86    89    1
    38    86    87    1
    39   180   179    1
    40    30    31    1
    41     3     4    2
    42     3     2    1
    43    89    90    1
    44    87    88    2
    45    87    93   am
    46    55    54    2
    47   179   178    1
    48   179   182    1
    49    93    94    1
    50    45    46    2
    51    45    47   am
    52    95    96    2
    53    95    94    1
    54    76    75    2
    55     2     1    1
    56     2     5    1
    57    75    74    1
    58    90    92   ar
    59    90    91   ar
    60    94    97    1
    61    54    56   am
    62    54    53    1
    63   182   183    1
    64    48    49    1
    65     5     6    1
    66    74    73    1
    67    74    77    1
    68   176   177    2
    69   176   175    1
    70    52    53    1
    71    52    49    1
    72   184   183    2
    73    49    50    1
    74   183   185   am
    75   175   174    1
    76   168   167    2
    77     8     6    1
    78     6     7    1
    79    71    70    2
    80    77    78    1
    81    72    69    1
    82   167   174   am
    83   167   166    1
    84    70    69    1
    85    69    68    1
    86    50    51    2
    87    78    80   ar
    88    78    79   ar
    89    80    82   ar
    90   169   166    1
    91   169   170    1
    92   166   165    1
    93   170   171    1
    94    79    81   ar
    95   165   160   am
    96    82    83   ar
    97   158   159    1
    98   160   159    1
    99   160   161    2
   100   159   162    1
   101    60    59    2
   102    81    83   ar
   103    83    84    1
   104    57    58    1
   105   171   172   ar
   106   171   173   ar
   107    64    63    2
   108    67    65    1
   109    59    58    1
   110    59    61   am
   111    62    65    1
   112    62    63    1
   113    62    61    1
   114   154   153    2
   115   153   152    1
   116    65    66    1
   117   162   163    1
   118   162   164    1
   119   151   152    1
   120   152   155    1
   121   155   156    1
   122   155   157    1
   123   143   142    2
   124   150   149    2
   125   149   148    1
   126   124   123    1
   127   142   147   am
   128   142   141    1
   129   148   147    1
   130   144   145    1
   131   144   141    1
   132   144   146    1
   133   141   140    1
   134   123   122   ar
   135   123   121   ar
   136   122   120   ar
   137   104   102    1
   138   112   110    1
   139   121   119   ar
   140   103   102    1
   141   102    99    1
   142   140   134   am
   143   120   118   ar
   144   135   134    2
   145   134   133    1
   146   111   110    1
   147   119   118   ar
   148   110   109    1
   149   118   117    1
   150    99    98    1
   151    99   100    1
   152   138   137    2
   153   139   137   am
   154   137   136    1
   155   130   129    1
   156   133   136    1
   157   133   132    1
   158   109   106    1
   159   100   101    2
   160   117   114    1
   161   106   105    1
   162   106   107    1
   163   128   127    2
   164   132   127   am
   165   114   113    1
   166   114   115    1
   167   127   126    1
   168   129   126    1
   169   129   131    1
   170   107   108    2
   171   126   125    1
   172   115   116    2
