@<TRIPOS>MOLECULE
tmp/2w0xA00.pdb
 138 129 0 0 0
SMALL
GASTEIGER

@<TRIPOS>ATOM
      1  N         11.3010   22.2830   36.6360 N.3   138  TYR138     -0.1241
      2  CA        12.2460   22.1700   35.5420 C.3   138  TYR138      0.1605
      3  C         13.2700   21.1510   35.9780 C.2   138  TYR138      0.2264
      4  O         14.0620   21.4140   36.8810 O.2   138  TYR138     -0.2867
      5  CB        12.9290   23.5210   35.2490 C.3   138  TYR138      0.0534
      6  CG        13.3980   23.7020   33.8110 C.ar  138  TYR138     -0.0201
      7  CD1       13.7260   22.6090   33.0190 C.ar  138  TYR138     -0.0009
      8  CD2       13.5340   24.9730   33.2560 C.ar  138  TYR138     -0.0009
      9  CE1       14.1500   22.7690   31.7010 C.ar  138  TYR138      0.0417
     10  CE2       13.9680   25.1470   31.9390 C.ar  138  TYR138      0.0417
     11  CZ        14.2720   24.0420   31.1660 C.ar  138  TYR138      0.1957
     12  OH        14.6950   24.2030   29.8570 O.3   138  TYR138     -0.2866
     13  N         16.6510   19.3620   35.4970 N.3   140  GLN140     -0.1245
     14  CA        17.9230   19.6590   34.8640 C.3   140  GLN140      0.1566
     15  C         18.9540   18.7820   35.5250 C.2   140  GLN140      0.2260
     16  O         19.4520   19.1050   36.6040 O.2   140  GLN140     -0.2867
     17  CB        18.3080   21.1280   35.0560 C.3   140  GLN140      0.0367
     18  CG        17.2120   22.1300   34.6900 C.3   140  GLN140      0.0905
     19  CD        17.6640   23.5680   34.8900 C.2   140  GLN140      0.2608
     20  OE1       18.7160   23.8220   35.4820 O.2   140  GLN140     -0.2717
     21  NE2       16.8750   24.5120   34.3950 N.am  140  GLN140     -0.0878
     22  N         23.4550   17.3110   29.4710 N.3   179  LEU179     -0.1245
     23  CA        22.4280   17.6660   30.4200 C.3   179  LEU179      0.1561
     24  C         21.0760   17.2860   29.8300 C.2   179  LEU179      0.2260
     25  O         20.8190   17.5010   28.6420 O.2   179  LEU179     -0.2867
     26  CB        22.4860   19.1670   30.7240 C.3   179  LEU179      0.0270
     27  CG        21.6210   19.6720   31.8820 C.3   179  LEU179      0.0019
     28  CD1       22.1620   19.1200   33.2090 C.3   179  LEU179      0.0001
     29  CD2       21.5330   21.2140   31.9090 C.3   179  LEU179      0.0001
     30  N         17.1750   18.1000   29.9700 N.3   181  LEU181     -0.1245
     31  CA        16.3370   19.2000   30.3880 C.3   181  LEU181      0.1561
     32  C         14.8900   18.8610   30.0830 C.2   181  LEU181      0.2260
     33  O         14.5360   18.5670   28.9450 O.2   181  LEU181     -0.2867
     34  CB        16.7580   20.4790   29.6450 C.3   181  LEU181      0.0270
     35  CG        18.1800   20.9710   29.9320 C.3   181  LEU181      0.0019
     36  CD1       18.9220   21.3510   28.6570 C.3   181  LEU181      0.0001
     37  CD2       18.1480   22.1430   30.9020 C.3   181  LEU181      0.0001
     38  N         14.5150   30.1320   30.9080 N.3   189  THR189     -0.1218
     39  CA        15.8170   30.2770   31.5330 C.3   189  THR189      0.1862
     40  C         16.3830   31.6280   31.1100 C.2   189  THR189      0.2287
     41  O         16.7280   31.8110   29.9440 O.2   189  THR189     -0.2866
     42  CB        16.7940   29.1740   31.1070 C.3   189  THR189      0.1770
     43  OG1       16.2730   27.8990   31.4900 O.3   189  THR189     -0.2211
     44  CG2       18.1470   29.3820   31.7750 C.3   189  THR189      0.0375
     45  N         21.9180   34.0900   29.6520 N.3   192  HIS192     -0.1241
     46  CA        23.2190   33.8840   30.2690 C.3   192  HIS192      0.1621
     47  C         24.2250   33.3890   29.2700 C.2   192  HIS192      0.2264
     48  O         23.8730   33.1370   28.1170 O.2   192  HIS192     -0.2867
     49  CB        23.1230   32.9230   31.4620 C.3   192  HIS192      0.0745
     50  CG        22.9200   31.4850   31.0940 C.ar  192  HIS192      0.0817
     51  ND1       22.3200   30.5860   31.9500 N.ar  192  HIS192     -0.2268
     52  CD2       23.2740   30.7780   29.9940 C.ar  192  HIS192      0.1154
     53  CE1       22.2970   29.3910   31.3870 C.ar  192  HIS192      0.1986
     54  NE2       22.8750   29.4800   30.2040 N.ar  192  HIS192     -0.2212
     55  N         27.7870   30.5790   28.7290 N.3   194  ASP194     -0.1239
     56  CA        28.5310   29.4400   29.2680 C.3   194  ASP194      0.1674
     57  C         29.9190   29.4460   28.6760 C.2   194  ASP194      0.2266
     58  O         30.1150   29.8300   27.5210 O.2   194  ASP194     -0.2867
     59  CB        27.8510   28.0970   28.9340 C.3   194  ASP194      0.1410
     60  CG        26.4480   27.9790   29.5090 C.2   194  ASP194      0.3668
     61  OD1       26.2800   28.0990   30.7370 O.co2 194  ASP194     -0.2456
     62  OD2       25.5050   27.7290   28.7270 O.co2 194  ASP194     -0.2456
     63  N         28.6270   24.3300   22.7110 N.3   198  ASN198     -0.1240
     64  CA        27.3990   23.5970   22.9910 C.3   198  ASN198      0.1653
     65  C         26.6250   23.2020   21.7310 C.2   198  ASN198      0.2266
     66  O         26.2250   24.0600   20.9300 O.2   198  ASN198     -0.2867
     67  CB        26.5260   24.4350   23.9360 C.3   198  ASN198      0.1155
     68  CG        25.2570   23.7460   24.3450 C.2   198  ASN198      0.2627
     69  OD1       24.9290   22.6380   23.8810 O.2   198  ASN198     -0.2716
     70  ND2       24.5100   24.4020   25.2210 N.am  198  ASN198     -0.0877
     71  N         23.1290   21.7470   21.1140 N.3   200  PHE200     -0.1241
     72  CA        21.9140   21.7380   21.9170 C.3   200  PHE200      0.1605
     73  C         20.8550   20.9990   21.1150 C.2   200  PHE200      0.2264
     74  O         20.2920   21.5490   20.1780 O.2   200  PHE200     -0.2867
     75  CB        21.5310   23.2040   22.1850 C.3   200  PHE200      0.0534
     76  CG        20.1570   23.4300   22.7930 C.ar  200  PHE200     -0.0203
     77  CD1       19.0230   23.4660   22.0000 C.ar  200  PHE200     -0.0042
     78  CD2       20.0290   23.7480   24.1350 C.ar  200  PHE200     -0.0042
     79  CE1       17.7740   23.7260   22.5460 C.ar  200  PHE200     -0.0003
     80  CE2       18.7900   24.0190   24.6860 C.ar  200  PHE200     -0.0003
     81  CZ        17.6570   24.0010   23.8880 C.ar  200  PHE200     -0.0000
     82  N         11.3110   24.9090   21.5780 N.3   207  LYS207     -0.1245
     83  CA        11.9430   25.9360   22.3870 C.3   207  LYS207      0.1561
     84  C         12.3300   27.1250   21.5150 C.2   207  LYS207      0.2260
     85  O         12.8800   26.9490   20.4240 O.2   207  LYS207     -0.2867
     86  CB        13.1800   25.3820   23.0960 C.3   207  LYS207      0.0271
     87  CG        12.8570   24.6780   24.4100 C.3   207  LYS207      0.0035
     88  CD        14.1120   24.1640   25.0700 C.3   207  LYS207      0.0206
     89  CE        13.8350   23.7680   26.4860 C.3   207  LYS207      0.1093
     90  NZ        15.0080   23.0710   27.0920 N.3   207  LYS207     -0.1314
     91  N         25.3520   26.5770   19.9130 N.3   266  ILE266     -0.1245
     92  CA        25.4830   27.7730   20.7390 C.3   266  ILE266      0.1561
     93  C         26.9550   27.9550   21.0510 C.2   266  ILE266      0.2260
     94  O         27.4720   27.2980   21.9480 O.2   266  ILE266     -0.2867
     95  CB        24.7350   27.6110   22.0600 C.3   266  ILE266      0.0252
     96  CG1       23.2950   27.1840   21.7970 C.3   266  ILE266      0.0019
     97  CG2       24.7510   28.9160   22.8500 C.3   266  ILE266      0.0019
     98  CD1       22.4500   27.1240   23.0560 C.3   266  ILE266      0.0001
     99  N         22.5760   33.3170   25.6870 N.3   272  HIS272     -0.1241
    100  CA        21.3630   32.6870   25.2080 C.3   272  HIS272      0.1621
    101  C         20.2610   32.7680   26.2330 C.2   272  HIS272      0.2264
    102  O         20.4890   32.6430   27.4310 O.2   272  HIS272     -0.2867
    103  CB        21.5970   31.2380   24.7580 C.3   272  HIS272      0.0745
    104  CG        22.4830   30.4560   25.6740 C.ar  272  HIS272      0.0817
    105  ND1       23.8540   30.6060   25.6880 N.ar  272  HIS272     -0.2268
    106  CD2       22.1960   29.5220   26.6100 C.ar  272  HIS272      0.1154
    107  CE1       24.3740   29.7970   26.5950 C.ar  272  HIS272      0.1986
    108  NE2       23.3890   29.1280   27.1680 N.ar  272  HIS272     -0.2212
    109  N         16.5350   31.0320   26.7140 N.3   274  ILE274     -0.1245
    110  CA        15.8060   29.8630   26.2200 C.3   274  ILE274      0.1561
    111  C         14.4410   29.7280   26.9020 C.2   274  ILE274      0.2260
    112  O         14.3380   29.7930   28.1180 O.2   274  ILE274     -0.2867
    113  CB        16.6710   28.5950   26.3520 C.3   274  ILE274      0.0252
    114  CG1       17.8600   28.7100   25.3970 C.3   274  ILE274      0.0019
    115  CG2       15.8640   27.3450   26.0320 C.3   274  ILE274      0.0019
    116  CD1       18.9660   27.7610   25.6680 C.3   274  ILE274      0.0001
    117  N         21.7730   18.4900   25.9060 N.3   287  ASN287     -0.1240
    118  CA        22.8860   19.2590   25.3670 C.3   287  ASN287      0.1653
    119  C         24.1700   18.4670   25.3830 C.2   287  ASN287      0.2266
    120  O         24.2620   17.4200   26.0280 O.2   287  ASN287     -0.2867
    121  CB        23.0500   20.6220   26.0760 C.3   287  ASN287      0.1155
    122  CG        23.5970   20.4960   27.5010 C.2   287  ASN287      0.2627
    123  OD1       24.1950   19.4840   27.8670 O.2   287  ASN287     -0.2716
    124  ND2       23.4000   21.5430   28.3070 N.am  287  ASN287     -0.0877
    125  N         28.0530   19.4850   26.0030 N.3   289  TRP289     -0.1241
    126  CA        29.0120   20.5300   26.3730 C.3   289  TRP289      0.1605
    127  C         30.4560   20.0730   26.1970 C.2   289  TRP289      0.2264
    128  O         30.8640   19.0690   26.7750 O.2   289  TRP289     -0.2867
    129  CB        28.7870   20.9310   27.8310 C.3   289  TRP289      0.0550
    130  CG        27.8050   22.0380   28.0390 C.ar  289  TRP289      0.0003
    131  CD1       26.8980   22.5160   27.1350 C.ar  289  TRP289      0.0946
    132  CD2       27.6160   22.8010   29.2390 C.ar  289  TRP289      0.0152
    133  NE1       26.1690   23.5410   27.6940 N.ar  289  TRP289     -0.2442
    134  CE2       26.5880   23.7360   28.9830 C.ar  289  TRP289      0.0810
    135  CE3       28.2280   22.7930   30.5000 C.ar  289  TRP289      0.0012
    136  CZ2       26.1500   24.6520   29.9430 C.ar  289  TRP289      0.0191
    137  CZ3       27.7950   23.7070   31.4590 C.ar  289  TRP289      0.0001
    138  CH2       26.7600   24.6210   31.1750 C.ar  289  TRP289      0.0015
@<TRIPOS>BOND
     1    91    92    1
     2    74    73    2
     3    85    84    2
     4    92    93    1
     5    92    95    1
     6    66    65    2
     7    93    94    2
     8    71    72    1
     9    73    72    1
    10    84    83    1
    11    82    83    1
    12    65    64    1
    13    96    95    1
    14    96    98    1
    15    72    75    1
    16    77    79   ar
    17    77    76   ar
    18    95    97    1
    19    75    76    1
    20    83    86    1
    21    79    81   ar
    22    63    64    1
    23    76    78   ar
    24    64    67    1
    25    86    87    1
    26    69    68    2
    27    81    80   ar
    28    67    68    1
    29    78    80   ar
    30    68    70   am
    31    87    88    1
    32   103   100    1
    33   103   104    1
    34    88    89    1
    35   100    99    1
    36   100   101    1
    37   118   119    1
    38   118   117    1
    39   118   121    1
    40   119   120    2
    41   114   116    1
    42   114   113    1
    43   104   105   ar
    44   104   106   ar
    45   105   107   ar
    46   125   126    1
    47   115   113    1
    48   121   122    1
    49   127   126    1
    50   127   128    2
    51   110   113    1
    52   110   109    1
    53   110   111    1
    54   101   102    2
    55   126   129    1
    56    89    90    1
    57   107   108   ar
    58   106   108   ar
    59   111   112    2
    60   131   133   ar
    61   131   130   ar
    62   122   123    2
    63   122   124   am
    64    58    57    2
    65   133   134   ar
    66   129   130    1
    67   130   132   ar
    68    48    47    2
    69    25    24    2
    70    36    35    1
    71    57    56    1
    72    62    60   ar
    73    55    56    1
    74    59    56    1
    75    59    60    1
    76    33    32    2
    77   134   132   ar
    78   134   136   ar
    79   132   135   ar
    80    47    46    1
    81    22    23    1
    82    60    61   ar
    83    34    35    1
    84    34    31    1
    85    45    46    1
    86    24    23    1
    87    12    11    1
    88    35    37    1
    89   136   138   ar
    90    41    40    2
    91    30    31    1
    92    52    54   ar
    93    52    50   ar
    94    32    31    1
    95    54    53   ar
    96    46    49    1
    97    23    26    1
    98   135   137   ar
    99    26    27    1
   100    38    39    1
   101    50    49    1
   102    50    51   ar
   103    42    43    1
   104    42    39    1
   105    42    44    1
   106    40    39    1
   107    11     9   ar
   108    11    10   ar
   109   138   137   ar
   110    53    51   ar
   111     9     7   ar
   112    27    29    1
   113    27    28    1
   114    10     8   ar
   115     7     6   ar
   116     8     6   ar
   117     6     5    1
   118    21    19   am
   119    18    19    1
   120    18    17    1
   121    14    17    1
   122    14    13    1
   123    14    15    1
   124    19    20    2
   125     5     2    1
   126    15    16    2
   127     2     3    1
   128     2     1    1
   129     3     4    2
