@<TRIPOS>MOLECULE
tmp/2w10A00.pdb
 165 163 0 0 0
SMALL
GASTEIGER

@<TRIPOS>ATOM
      1  N          8.2640   -3.2560    4.0640 N.3    11  TYR11      -0.1227
      2  CA         9.0840   -3.9130    3.0310 C.3    11  TYR11       0.1736
      3  C          8.8370   -3.2450    1.7180 C.2    11  TYR11       0.2595
      4  O          7.8410   -2.5320    1.5860 O.2    11  TYR11      -0.2718
      5  CB         8.6650   -5.3780    2.8480 C.3    11  TYR11       0.0548
      6  CG         8.5410   -6.0740    4.1420 C.ar   11  TYR11      -0.0200
      7  CD1        9.6730   -6.4910    4.8120 C.ar   11  TYR11      -0.0009
      8  CD2        7.3190   -6.2900    4.7210 C.ar   11  TYR11      -0.0009
      9  CE1        9.5830   -7.0980    6.0230 C.ar   11  TYR11       0.0417
     10  CE2        7.2260   -6.9380    5.9490 C.ar   11  TYR11       0.0417
     11  CZ         8.3770   -7.3330    6.5740 C.ar   11  TYR11       0.1957
     12  OH         8.3540   -7.9640    7.7700 O.3    11  TYR11      -0.2866
     13  N          9.7330   -3.5170    0.7530 N.am   12  ASP12      -0.1960
     14  CA         9.5720   -3.1320   -0.6230 C.3    12  ASP12       0.1840
     15  C          8.4770   -4.0120   -1.2090 C.2    12  ASP12       0.2622
     16  O          8.4140   -5.2160   -0.9170 O.2    12  ASP12      -0.2715
     17  CB        10.8440   -3.3970   -1.4430 C.3    12  ASP12       0.1450
     18  CG        12.0360   -2.5920   -0.9760 C.2    12  ASP12       0.3671
     19  OD1       11.8760   -1.5210   -0.3820 O.co2  12  ASP12      -0.2456
     20  OD2       13.1590   -3.0690   -1.1820 O.co2  12  ASP12      -0.2456
     21  N          7.6160   -3.4100   -2.0250 N.am   13  PHE13      -0.1960
     22  CA         6.6040   -4.1530   -2.7630 C.3    13  PHE13       0.1771
     23  C          6.7530   -3.8090   -4.2320 C.2    13  PHE13       0.2619
     24  O          6.6400   -2.6370   -4.6000 O.2    13  PHE13      -0.2715
     25  CB         5.1790   -3.8480   -2.2590 C.3    13  PHE13       0.0574
     26  CG         4.1130   -4.5290   -3.0570 C.ar   13  PHE13      -0.0200
     27  CD1        4.0900   -5.8920   -3.1830 C.ar   13  PHE13      -0.0042
     28  CD2        3.1450   -3.7910   -3.7300 C.ar   13  PHE13      -0.0042
     29  CE1        3.1220   -6.5280   -3.9600 C.ar   13  PHE13      -0.0003
     30  CE2        2.1630   -4.4160   -4.5210 C.ar   13  PHE13      -0.0003
     31  CZ         2.1530   -5.7660   -4.6480 C.ar   13  PHE13      -0.0000
     32  N          7.0560   -4.8080   -5.0540 N.am   14  GLU14      -0.1977
     33  CA         7.1790   -4.6140   -6.4850 C.3    14  GLU14       0.1602
     34  C          5.8310   -4.9470   -7.1290 C.2    14  GLU14       0.2287
     35  O          5.2670   -6.0410   -6.9590 O.2    14  GLU14      -0.2864
     36  CB         8.3100   -5.4960   -7.0640 C.3    14  GLU14       0.0415
     37  CG         8.4820   -5.4880   -8.6210 C.3    14  GLU14       0.1163
     38  CD         9.0100   -4.1680   -9.2150 C.2    14  GLU14       0.3649
     39  OE1        9.9850   -3.5700   -8.6660 O.co2  14  GLU14      -0.2457
     40  OE2        8.4460   -3.7270  -10.2610 O.co2  14  GLU14      -0.2457
     41  N          3.6210   -6.2450   -9.7640 N.3    16  LEU16      -0.1231
     42  CA         3.7740   -7.2750  -10.7980 C.3    16  LEU16       0.1693
     43  C          2.6020   -7.3290  -11.7510 C.2    16  LEU16       0.2592
     44  O          2.6890   -7.9430  -12.8250 O.2    16  LEU16      -0.2718
     45  CB         3.9490   -8.6740  -10.1620 C.3    16  LEU16       0.0284
     46  CG         5.2110   -8.9610   -9.3410 C.3    16  LEU16       0.0019
     47  CD1        5.2720  -10.4460   -9.0830 C.3    16  LEU16       0.0001
     48  CD2        6.4770   -8.4910  -10.0570 C.3    16  LEU16       0.0001
     49  N          1.5010   -6.7100  -11.3460 N.am   17  GLU17      -0.1966
     50  CA         0.2950   -6.6030  -12.1580 C.3    17  GLU17       0.1733
     51  C         -0.1770   -5.1530  -12.1500 C.2    17  GLU17       0.2616
     52  O          0.1850   -4.3650  -11.2490 O.2    17  GLU17      -0.2715
     53  CB        -0.8000   -7.5660  -11.6550 C.3    17  GLU17       0.0429
     54  CG        -0.3970   -9.0010  -11.8570 C.3    17  GLU17       0.1163
     55  CD        -1.5110   -9.9960  -11.7160 C.2    17  GLU17       0.3649
     56  OE1       -2.4020   -9.8280  -10.8500 O.co2  17  GLU17      -0.2457
     57  OE2       -1.4740  -10.9850  -12.4630 O.co2  17  GLU17      -0.2457
     58  N         -0.9660   -4.8080  -13.1750 N.am   18  GLU18      -0.1963
     59  CA        -1.2140   -3.4050  -13.5170 C.3    18  GLU18       0.1733
     60  C         -1.9890   -2.6750  -12.4290 C.2    18  GLU18       0.2616
     61  O         -1.8380   -1.4810  -12.2390 O.2    18  GLU18      -0.2715
     62  CB        -1.9250   -3.3220  -14.8730 C.3    18  GLU18       0.0429
     63  CG        -2.6730   -2.0270  -15.1260 C.3    18  GLU18       0.1163
     64  CD        -4.0570   -1.9720  -14.4490 C.2    18  GLU18       0.3649
     65  OE1       -4.7290   -3.0300  -14.2490 O.co2  18  GLU18      -0.2457
     66  OE2       -4.4610   -0.8340  -14.1250 O.co2  18  GLU18      -0.2457
     67  N         -2.8090   -3.4130  -11.6970 N.am   19  ASP19      -0.1957
     68  CA        -3.5890   -2.8320  -10.6080 C.3    19  ASP19       0.1840
     69  C         -2.8000   -2.6090   -9.2890 C.2    19  ASP19       0.2621
     70  O         -3.3730   -2.0950   -8.3280 O.2    19  ASP19      -0.2715
     71  CB        -4.8560   -3.6520  -10.3410 C.3    19  ASP19       0.1450
     72  CG        -4.5800   -5.0820   -9.9430 C.2    19  ASP19       0.3671
     73  OD1       -3.4200   -5.5260  -10.0110 O.co2  19  ASP19      -0.2456
     74  OD2       -5.5580   -5.7810   -9.5930 O.co2  19  ASP19      -0.2456
     75  N         -1.5110   -2.9540   -9.2500 N.am   20  GLU20      -0.1977
     76  CA        -0.7320   -2.8970   -7.9980 C.3    20  GLU20       0.1602
     77  C          0.0310   -1.5770   -7.7940 C.2    20  GLU20       0.2287
     78  O          0.5740   -0.9850   -8.7400 O.2    20  GLU20      -0.2864
     79  CB         0.2220   -4.0910   -7.8960 C.3    20  GLU20       0.0415
     80  CG        -0.5220   -5.4130   -7.9420 C.3    20  GLU20       0.1163
     81  CD         0.3380   -6.6620   -7.9420 C.2    20  GLU20       0.3649
     82  OE1        1.5780   -6.5590   -7.9140 O.co2  20  GLU20      -0.2457
     83  OE2       -0.2510   -7.7830   -7.9820 O.co2  20  GLU20      -0.2457
     84  N        -10.3650   -5.1870    2.9750 N.3    36  ASN36      -0.1240
     85  CA       -10.0430   -6.5140    2.4430 C.3    36  ASN36       0.1653
     86  C         -8.8600   -7.0500    3.2420 C.2    36  ASN36       0.2266
     87  O         -7.8770   -6.3210    3.4390 O.2    36  ASN36      -0.2867
     88  CB        -9.6700   -6.4140    0.9570 C.3    36  ASN36       0.1155
     89  CG        -9.4810   -7.7450    0.3170 C.2    36  ASN36       0.2627
     90  OD1       -8.4840   -8.4190    0.5520 O.2    36  ASN36      -0.2716
     91  ND2      -10.4250   -8.1360   -0.5370 N.am   36  ASN36      -0.0877
     92  N         -6.5100   -9.1250    2.5730 N.3    38  SER38      -0.1202
     93  CA        -5.3180   -9.4390    1.8020 C.3    38  SER38       0.2020
     94  C         -4.7560   -8.2290    1.0650 C.2    38  SER38       0.2618
     95  O         -3.5470   -8.0120    1.0740 O.2    38  SER38      -0.2717
     96  CB        -5.6090  -10.5630    0.8120 C.3    38  SER38       0.2103
     97  OG        -5.6140  -11.8200    1.4820 O.3    38  SER38      -0.2182
     98  N         -5.6390   -7.4620    0.4140 N.am   39  TRP39      -0.1975
     99  CA        -5.2580   -6.3730   -0.4650 C.3    39  TRP39       0.1640
    100  C         -5.8750   -5.0240   -0.0770 C.2    39  TRP39       0.2290
    101  O         -7.0970   -4.8720   -0.1170 O.2    39  TRP39      -0.2864
    102  CB        -5.6790   -6.6940   -1.9030 C.3    39  TRP39       0.0576
    103  CG        -5.0020   -7.8810   -2.5430 C.ar   39  TRP39       0.0006
    104  CD1       -5.5180   -9.1310   -2.7000 C.ar   39  TRP39       0.0946
    105  CD2       -3.6960   -7.9150   -3.1380 C.ar   39  TRP39       0.0152
    106  NE1       -4.6200   -9.9380   -3.3360 N.ar   39  TRP39      -0.2442
    107  CE2       -3.4980   -9.2150   -3.6360 C.ar   39  TRP39       0.0810
    108  CE3       -2.6890   -6.9710   -3.3130 C.ar   39  TRP39       0.0012
    109  CZ2       -2.3220   -9.6010   -4.2760 C.ar   39  TRP39       0.0191
    110  CZ3       -1.5130   -7.3530   -3.9530 C.ar   39  TRP39       0.0001
    111  CH2       -1.3430   -8.6550   -4.4260 C.ar   39  TRP39       0.0015
    112  N         -6.0550   -0.7520   -0.6870 N.3    41  THR41      -0.1218
    113  CA        -5.9470    0.2220   -1.7570 C.3    41  THR41       0.1862
    114  C         -5.2370    1.4600   -1.2000 C.2    41  THR41       0.2287
    115  O         -5.5680    1.9350   -0.1150 O.2    41  THR41      -0.2866
    116  CB        -7.3450    0.6310   -2.2450 C.3    41  THR41       0.1770
    117  OG1       -8.0530   -0.5720   -2.6450 O.3    41  THR41      -0.2211
    118  CG2       -7.2300    1.6170   -3.3700 C.3    41  THR41       0.0375
    119  N         -2.5020    5.2030   -7.8510 N.3    48  LEU48      -0.1231
    120  CA        -3.5150    4.4840   -7.0930 C.3    48  LEU48       0.1696
    121  C         -3.3120    2.9930   -7.3520 C.2    48  LEU48       0.2632
    122  O         -3.0300    2.5880   -8.4910 O.2    48  LEU48      -0.2714
    123  CB        -4.8890    4.8930   -7.6060 C.3    48  LEU48       0.0284
    124  CG        -6.1970    4.5650   -6.8610 C.3    48  LEU48       0.0019
    125  CD1       -7.3030    4.2110   -7.8690 C.3    48  LEU48       0.0001
    126  CD2       -6.0630    3.4630   -5.8600 C.3    48  LEU48       0.0001
    127  N         -3.4600    2.1570   -6.3230 N.am   49  GLY49      -0.1718
    128  CA        -3.4470    0.7270   -6.5700 C.2    49  GLY49       0.1480
    129  C         -3.5250   -0.1300   -5.3480 C.2    49  GLY49       0.2820
    130  O         -3.5880    0.3860   -4.2240 O.2    49  GLY49      -0.2669
    131  N         -3.4770   -1.4390   -5.5870 N.am   50  LEU50      -0.1943
    132  CA        -3.5650   -2.4350   -4.5170 C.3    50  LEU50       0.1599
    133  C         -2.1860   -2.8950   -4.0650 C.2    50  LEU50       0.2287
    134  O         -1.2340   -2.9190   -4.8530 O.2    50  LEU50      -0.2864
    135  CB        -4.3450   -3.6260   -5.0010 C.3    50  LEU50       0.0297
    136  CG        -5.7740   -3.2750   -5.4300 C.3    50  LEU50       0.0022
    137  CD1       -6.3020   -4.2620   -6.4060 C.3    50  LEU50       0.0001
    138  CD2       -6.7070   -3.1550   -4.2230 C.3    50  LEU50       0.0001
    139  N         -0.1680   -5.4410   -0.6880 N.3    52  PRO52      -0.2116
    140  CA        -0.4880   -6.3920    0.3850 C.3    52  PRO52       0.1372
    141  C         -0.6790   -5.7390    1.7680 C.2    52  PRO52       0.2244
    142  O          0.1580   -4.9350    2.2230 O.2    52  PRO52      -0.2868
    143  CB         0.7280   -7.3210    0.3860 C.3    52  PRO52       0.0268
    144  CG         1.3760   -7.1140   -0.9540 C.3    52  PRO52       0.0207
    145  CD         1.1810   -5.6810   -1.2150 C.3    52  PRO52       0.0892
    146  N         -0.3670   -6.9290    4.7670 N.3    54  ASN54      -0.1225
    147  CA         0.6590   -7.2700    5.7770 C.3    54  ASN54       0.1785
    148  C          2.0760   -6.7610    5.4220 C.2    54  ASN54       0.2597
    149  O          3.0430   -7.0730    6.1210 O.2    54  ASN54      -0.2718
    150  CB         0.6320   -8.7610    6.0870 C.3    54  ASN54       0.1169
    151  CG         1.0760   -9.6170    4.9340 C.2    54  ASN54       0.2627
    152  OD1        1.5390   -9.1260    3.8930 O.2    54  ASN54      -0.2716
    153  ND2        0.8850  -10.9250    5.0850 N.am   54  ASN54      -0.0877
    154  N          2.1790   -5.9550    4.3530 N.am   55  TYR55      -0.1976
    155  CA         3.4510   -5.2870    4.0000 C.3    55  TYR55       0.1639
    156  C          3.6270   -3.9180    4.6750 C.2    55  TYR55       0.2290
    157  O          4.6840   -3.3160    4.5420 O.2    55  TYR55      -0.2864
    158  CB         3.6000   -5.1170    2.4790 C.3    55  TYR55       0.0560
    159  CG         4.2190   -6.2810    1.7370 C.ar   55  TYR55      -0.0198
    160  CD1        3.8040   -7.5870    1.9820 C.ar   55  TYR55      -0.0009
    161  CD2        5.2170   -6.0770    0.7970 C.ar   55  TYR55      -0.0009
    162  CE1        4.3260   -8.6560    1.2680 C.ar   55  TYR55       0.0417
    163  CE2        5.7860   -7.1430    0.0910 C.ar   55  TYR55       0.0417
    164  CZ         5.3360   -8.4270    0.3330 C.ar   55  TYR55       0.1957
    165  OH         5.8660   -9.4650   -0.3700 O.3    55  TYR55      -0.2866
@<TRIPOS>BOND
     1    63    62    1
     2    63    64    1
     3    62    59    1
     4    64    65   ar
     5    64    66   ar
     6    59    58    1
     7    59    60    1
     8    58    51   am
     9    44    43    2
    10    57    55   ar
    11    60    61    2
    12    60    67   am
    13    50    51    1
    14    50    53    1
    15    50    49    1
    16    51    52    2
    17    54    55    1
    18    54    53    1
    19    43    49   am
    20    43    42    1
    21    55    56   ar
    22    67    68    1
    23    42    45    1
    24    42    41    1
    25    68    71    1
    26    68    69    1
    27    71    72    1
    28    40    38   ar
    29    45    46    1
    30    48    46    1
    31    73    72   ar
    32    72    74   ar
    33    46    47    1
    34    69    75   am
    35    69    70    2
    36    75    76    1
    37    38    39   ar
    38    38    37    1
    39    78    77    2
    40    37    36    1
    41   122   121    2
    42    76    79    1
    43    76    77    1
    44    83    81   ar
    45    80    81    1
    46    80    79    1
    47    81    82   ar
    48   125   124    1
    49   119   120    1
    50   123   120    1
    51   123   124    1
    52   121   120    1
    53   121   127    1
    54    34    35    2
    55    34    33    1
    56    36    33    1
    57   124   126    1
    58   128   127    2
    59   128   129    1
    60    33    32    1
    61   137   136    1
    62   131   129   am
    63   131   132    1
    64   136   135    1
    65   136   138    1
    66   129   130    2
    67    32    23   am
    68   135   132    1
    69   134   133    2
    70    31    30   ar
    71    31    29   ar
    72    24    23    2
    73    30    28   ar
    74   132   133    1
    75   111   109   ar
    76   111   110   ar
    77   109   107   ar
    78    23    22    1
    79    29    27   ar
    80   110   108   ar
    81    28    26   ar
    82   107   106   ar
    83   107   105   ar
    84   118   116    1
    85   106   104   ar
    86   108   105   ar
    87    27    26   ar
    88   105   103   ar
    89    26    25    1
    90    22    25    1
    91    22    21    1
    92   104   103   ar
    93   117   116    1
    94   103   102    1
    95   116   113    1
    96    21    15   am
    97   102    99    1
    98   113   114    1
    99   113   112    1
   100    17    18    1
   101    17    14    1
   102   145   144    1
   103   145   139    1
   104    15    16    2
   105    15    14    1
   106   114   115    2
   107    20    18   ar
   108    18    19   ar
   109   144   143    1
   110   139   140    1
   111    14    13    1
   112    91    89   am
   113    99   100    1
   114    99    98    1
   115   165   164    1
   116   101   100    2
   117   163   164   ar
   118   163   161   ar
   119    89    90    2
   120    89    88    1
   121   164   162   ar
   122   140   143    1
   123   140   141    1
   124    98    94   am
   125    13     3   am
   126   161   159   ar
   127    96    97    1
   128    96    93    1
   129    88    85    1
   130    94    95    2
   131    94    93    1
   132   162   160   ar
   133     4     3    2
   134     3     2    1
   135   159   160   ar
   136   159   158    1
   137   141   142    2
   138    93    92    1
   139    85    84    1
   140    85    86    1
   141   158   155    1
   142     5     2    1
   143     5     6    1
   144     2     1    1
   145    86    87    2
   146   152   151    2
   147   155   154    1
   148   155   156    1
   149     6     8   ar
   150     6     7   ar
   151   154   148   am
   152   157   156    2
   153     8    10   ar
   154   146   147    1
   155     7     9   ar
   156   151   153   am
   157   151   150    1
   158   148   147    1
   159   148   149    2
   160   147   150    1
   161    10    11   ar
   162     9    11   ar
   163    11    12    1
