@<TRIPOS>MOLECULE
tmp/2w17A00.pdb
 174 165 0 0 0
SMALL
GASTEIGER

@<TRIPOS>ATOM
      1  N         -0.5700   23.5520    3.7540 N.3    10  ILE10      -0.1231
      2  CA         0.5540   23.8470    4.6520 C.3    10  ILE10       0.1692
      3  C          0.2350   23.5980    6.1340 C.2    10  ILE10       0.2592
      4  O          1.1060   23.7660    6.9880 O.2    10  ILE10      -0.2718
      5  CB         1.0500   25.3170    4.4700 C.3    10  ILE10       0.0266
      6  CG1       -0.0690   26.3250    4.7600 C.3    10  ILE10       0.0019
      7  CG2        1.5910   25.5120    3.0750 C.3    10  ILE10       0.0020
      8  CD1        0.2110   27.7430    4.2780 C.3    10  ILE10       0.0001
      9  N         -0.9980   23.1970    6.4410 N.am   11  GLY11      -0.1957
     10  CA        -1.4130   22.9380    7.8240 C.3    11  GLY11       0.1869
     11  C         -2.8470   22.4360    7.8900 C.2    11  GLY11       0.2309
     12  O         -3.6540   22.7620    7.0180 O.2    11  GLY11      -0.2863
     13  N        -10.0030   23.9400   11.3730 N.3    15  GLY15      -0.1225
     14  CA        -9.8020   24.4660   10.0060 C.3    15  GLY15       0.1811
     15  C         -8.4880   24.0830    9.3320 C.2    15  GLY15       0.2280
     16  O         -7.4770   23.8950   10.0170 O.2    15  GLY15      -0.2866
     17  N         -5.3640   25.0320    6.3940 N.3    17  VAL17      -0.1245
     18  CA        -4.6430   26.1950    5.8400 C.3    17  VAL17       0.1561
     19  C         -3.8980   25.8580    4.5370 C.2    17  VAL17       0.2260
     20  O         -3.1170   24.9100    4.4710 O.2    17  VAL17      -0.2867
     21  CB        -3.6240   26.7830    6.8580 C.3    17  VAL17       0.0252
     22  CG1       -2.9990   28.0760    6.3220 C.3    17  VAL17       0.0019
     23  CG2       -4.2940   27.0460    8.1800 C.3    17  VAL17       0.0019
     24  N         -1.9850   32.8990    2.7620 N.3    30  ALA30      -0.1245
     25  CA        -2.4100   31.7190    3.5000 C.3    30  ALA30       0.1562
     26  C         -3.9250   31.8100    3.6010 C.2    30  ALA30       0.2260
     27  O         -4.4780   32.8520    3.9790 O.2    30  ALA30      -0.2867
     28  CB        -1.7750   31.6760    4.8790 C.3    30  ALA30       0.0290
     29  N         -7.2520   30.1270    5.0960 N.3    32  LYS32      -0.1245
     30  CA        -7.7450   29.2430    6.1300 C.3    32  LYS32       0.1561
     31  C         -9.2190   28.9450    5.8820 C.2    32  LYS32       0.2260
     32  O        -10.0270   29.8620    5.7980 O.2    32  LYS32      -0.2867
     33  CB        -7.5600   29.8850    7.5030 C.3    32  LYS32       0.0271
     34  CG        -7.6380   28.9070    8.6540 C.3    32  LYS32       0.0035
     35  CD        -7.5450   29.6340    9.9750 C.3    32  LYS32       0.0206
     36  CE        -6.6340   28.9380   10.9690 C.3    32  LYS32       0.1093
     37  NZ        -6.1130   29.8990   11.9870 N.3    32  LYS32      -0.1314
     38  N          0.3480   38.0560   12.5570 N.3    58  VAL58      -0.1245
     39  CA         0.1280   37.7680   11.1320 C.3    58  VAL58       0.1561
     40  C         -1.1100   38.5520   10.6840 C.2    58  VAL58       0.2260
     41  O         -2.1580   38.4680   11.3320 O.2    58  VAL58      -0.2867
     42  CB        -0.0760   36.2450   10.8190 C.3    58  VAL58       0.0252
     43  CG1       -0.2030   36.0200    9.3100 C.3    58  VAL58       0.0019
     44  CG2        1.0680   35.4120   11.3590 C.3    58  VAL58       0.0019
     45  N         -4.8390   35.3940    5.0740 N.3    73  PHE73      -0.1227
     46  CA        -3.7770   35.9880    5.8490 C.3    73  PHE73       0.1736
     47  C         -2.6060   36.3130    4.9220 C.2    73  PHE73       0.2595
     48  O         -2.3950   35.6550    3.8980 O.2    73  PHE73      -0.2718
     49  CB        -3.2830   35.0150    6.9370 C.3    73  PHE73       0.0547
     50  CG        -4.2430   34.8110    8.0770 C.ar   73  PHE73      -0.0202
     51  CD1       -5.0460   33.6850    8.1270 C.ar   73  PHE73      -0.0042
     52  CD2       -4.3030   35.7200    9.1190 C.ar   73  PHE73      -0.0042
     53  CE1       -5.9150   33.4850    9.1650 C.ar   73  PHE73      -0.0003
     54  CE2       -5.1670   35.5300   10.1590 C.ar   73  PHE73      -0.0003
     55  CZ        -5.9890   34.4050   10.1830 C.ar   73  PHE73      -0.0000
     56  N         -1.8580   37.3400    5.2990 N.am   74  GLU74      -0.1965
     57  CA        -0.4580   37.4680    4.9340 C.3    74  GLU74       0.1733
     58  C          0.1880   36.0650    4.9550 C.2    74  GLU74       0.2616
     59  O         -0.0180   35.3100    5.9000 O.2    74  GLU74      -0.2715
     60  CB         0.1940   38.3440    5.9990 C.3    74  GLU74       0.0429
     61  CG         1.6860   38.4740    5.9350 C.3    74  GLU74       0.1163
     62  CD         2.2380   39.2970    7.0830 C.2    74  GLU74       0.3649
     63  OE1        1.6540   39.3120    8.1820 O.co2  74  GLU74      -0.2457
     64  OE2        3.2870   39.9290    6.8850 O.co2  74  GLU74      -0.2457
     65  N          0.9140   35.7060    3.9040 N.am   75  PHE75      -0.1960
     66  CA         1.6860   34.4640    3.9010 C.3    75  PHE75       0.1771
     67  C          3.1060   34.6420    4.5060 C.2    75  PHE75       0.2619
     68  O          3.8080   35.5890    4.1980 O.2    75  PHE75      -0.2715
     69  CB         1.7740   33.8840    2.4770 C.3    75  PHE75       0.0574
     70  CG         2.5100   32.5630    2.4130 C.ar   75  PHE75      -0.0200
     71  CD1        1.8820   31.3790    2.7840 C.ar   75  PHE75      -0.0042
     72  CD2        3.8320   32.5140    2.0200 C.ar   75  PHE75      -0.0042
     73  CE1        2.5530   30.1580    2.7350 C.ar   75  PHE75      -0.0003
     74  CE2        4.5170   31.2940    1.9830 C.ar   75  PHE75      -0.0003
     75  CZ         3.8650   30.1130    2.3360 C.ar   75  PHE75      -0.0000
     76  N          3.4870   33.7290    5.4000 N.am   76  LEU76      -0.1963
     77  CA         4.8630   33.6160    5.8940 C.3    76  LEU76       0.1728
     78  C          5.4100   32.2060    5.5760 C.2    76  LEU76       0.2616
     79  O          4.6600   31.2170    5.5940 O.2    76  LEU76      -0.2715
     80  CB         4.9430   33.9250    7.3960 C.3    76  LEU76       0.0311
     81  CG         4.9880   35.4180    7.7500 C.3    76  LEU76       0.0022
     82  CD1        3.5780   35.9960    7.8580 C.3    76  LEU76       0.0001
     83  CD2        5.7610   35.6760    9.0340 C.3    76  LEU76       0.0001
     84  N          6.7170   32.1090    5.3220 N.am   77  HIS77      -0.1959
     85  CA         7.2650   30.9230    4.6630 C.3    77  HIS77       0.1787
     86  C          7.6500   29.7470    5.5570 C.2    77  HIS77       0.2620
     87  O          7.8850   28.6550    5.0500 O.2    77  HIS77      -0.2715
     88  CB         8.4560   31.3160    3.7870 C.3    77  HIS77       0.0785
     89  CG         8.0620   31.9770    2.5070 C.ar   77  HIS77       0.0821
     90  ND1        7.6380   33.2890    2.4450 N.ar   77  HIS77      -0.2267
     91  CD2        8.0140   31.5040    1.2410 C.ar   77  HIS77       0.1154
     92  CE1        7.3650   33.6000    1.1920 C.ar   77  HIS77       0.1986
     93  NE2        7.5840   32.5360    0.4420 N.ar   77  HIS77      -0.2212
     94  N          7.6890   29.9440    6.8660 N.am   78  GLN78      -0.1963
     95  CA         8.0870   28.8670    7.7710 C.3    78  GLN78       0.1733
     96  C          7.5520   29.0670    9.1970 C.2    78  GLN78       0.2616
     97  O          7.3960   30.2060    9.6550 O.2    78  GLN78      -0.2715
     98  CB         9.6140   28.7730    7.7880 C.3    78  GLN78       0.0408
     99  CG        10.1390   27.4470    8.2610 C.3    78  GLN78       0.0908
    100  CD        11.6250   27.2860    7.9910 C.2    78  GLN78       0.2608
    101  OE1       12.0530   27.0990    6.8390 O.2    78  GLN78      -0.2717
    102  NE2       12.4170   27.3370    9.0460 N.am   78  GLN78      -0.0878
    103  N          7.2590   27.9650    9.8930 N.am   79  ASP79      -0.1971
    104  CA         6.9240   28.0570   11.3120 C.3    79  ASP79       0.1709
    105  C          8.1790   27.8970   12.1640 C.2    79  ASP79       0.2293
    106  O          9.2150   27.5190   11.6430 O.2    79  ASP79      -0.2864
    107  CB         5.7450   27.1550   11.7340 C.3    79  ASP79       0.1436
    108  CG         6.0410   25.6500   11.6980 C.2    79  ASP79       0.3671
    109  OD1        7.1790   25.1920   11.5240 O.co2  79  ASP79      -0.2456
    110  OD2        5.0670   24.9040   11.8500 O.co2  79  ASP79      -0.2456
    111  N          8.6940   25.8870   14.6150 N.3    81  LYS81      -0.1231
    112  CA         8.9680   24.4640   14.8390 C.3    81  LYS81       0.1693
    113  C          9.9540   23.8840   13.8020 C.2    81  LYS81       0.2591
    114  O         10.9830   23.2850   14.1680 O.2    81  LYS81      -0.2718
    115  CB         7.6490   23.6920   14.8550 C.3    81  LYS81       0.0285
    116  CG         7.7780   22.1920   14.9160 C.3    81  LYS81       0.0035
    117  CD         8.6210   21.7230   16.0940 C.3    81  LYS81       0.0206
    118  CE         8.4210   20.1990   16.3170 C.3    81  LYS81       0.1093
    119  NZ         9.1700   19.6820   17.5060 N.3    81  LYS81      -0.1314
    120  N          9.6450   24.0510   12.5160 N.am   82  LYS82      -0.1980
    121  CA        10.5520   23.6030   11.4460 C.3    82  LYS82       0.1596
    122  C         11.9370   24.2460   11.5550 C.2    82  LYS82       0.2287
    123  O         12.9450   23.6010   11.2920 O.2    82  LYS82      -0.2864
    124  CB         9.9430   23.9200   10.0890 C.3    82  LYS82       0.0298
    125  CG        10.7750   23.5370    8.8900 C.3    82  LYS82       0.0038
    126  CD         9.9710   23.7560    7.6190 C.3    82  LYS82       0.0206
    127  CE        10.8720   23.7220    6.3880 C.3    82  LYS82       0.1093
    128  NZ        10.1030   23.9390    5.1170 N.3    82  LYS82      -0.1314
    129  N         13.7270   22.5710   14.5310 N.3    85  ASP85      -0.1239
    130  CA        14.1990   21.2390   14.1350 C.3    85  ASP85       0.1674
    131  C         15.3820   21.3400   13.1620 C.2    85  ASP85       0.2266
    132  O         16.3670   20.6010   13.2840 O.2    85  ASP85      -0.2867
    133  CB        13.0560   20.3980   13.5630 C.3    85  ASP85       0.1410
    134  CG        12.0000   20.0830   14.6020 C.2    85  ASP85       0.3668
    135  OD1       10.8160   20.0200   14.2460 O.co2  85  ASP85      -0.2456
    136  OD2       12.3390   19.9230   15.7880 O.co2  85  ASP85      -0.2456
    137  N          4.3460   25.7880   16.5600 N.3   124  GLN124     -0.1231
    138  CA         3.6240   25.5570   15.3090 C.3   124  GLN124      0.1698
    139  C          2.8060   26.7880   14.8440 C.2   124  GLN124      0.2592
    140  O          2.5360   26.9550   13.6440 O.2   124  GLN124     -0.2718
    141  CB         2.7160   24.3120   15.4720 C.3   124  GLN124      0.0381
    142  CG         3.4660   22.9760   15.7420 C.3   124  GLN124      0.0905
    143  CD         3.9910   22.7810   17.1910 C.2   124  GLN124      0.2608
    144  OE1        3.5520   23.4280   18.1170 O.2   124  GLN124     -0.2717
    145  NE2        4.9350   21.8560   17.3630 N.am  124  GLN124     -0.0878
    146  N          2.4080   27.6660   15.7640 N.am  125  ASN125     -0.1974
    147  CA         1.6680   28.8630   15.3400 C.3   125  ASN125      0.1688
    148  C          2.4330   30.1640   15.5350 C.2   125  ASN125      0.2292
    149  O          1.8470   31.2280   15.6900 O.2   125  ASN125     -0.2864
    150  CB         0.2240   28.8910   15.8740 C.3   125  ASN125      0.1181
    151  CG         0.1190   28.6950   17.3710 C.2   125  ASN125      0.2629
    152  OD1        1.0060   29.0620   18.1300 O.2   125  ASN125     -0.2716
    153  ND2       -1.0090   28.1370   17.8040 N.am  125  ASN125     -0.0877
    154  N          5.1850   32.1660   13.2780 N.3   127  LEU127     -0.1245
    155  CA         5.6440   32.1980   11.9010 C.3   127  LEU127      0.1561
    156  C          6.7860   33.1970   11.6930 C.2   127  LEU127      0.2260
    157  O          6.7100   34.3120   12.1880 O.2   127  LEU127     -0.2867
    158  CB         4.4610   32.5490   10.9900 C.3   127  LEU127      0.0270
    159  CG         3.2500   31.5970   11.0620 C.3   127  LEU127      0.0019
    160  CD1        2.2120   31.9840   10.0000 C.3   127  LEU127      0.0001
    161  CD2        3.6820   30.1120   10.9160 C.3   127  LEU127      0.0001
    162  N          0.2430   33.7560   15.2030 N.3   137  ALA137     -0.1231
    163  CA        -0.7520   33.3470   14.2170 C.3   137  ALA137      0.1694
    164  C         -1.7950   32.4260   14.8270 C.2   137  ALA137      0.2592
    165  O         -1.5750   31.8540   15.9040 O.2   137  ALA137     -0.2718
    166  CB        -0.0610   32.6720   13.0600 C.3   137  ALA137      0.0304
    167  N         -2.9130   32.2550   14.1320 N.am  138  ASP138     -0.1974
    168  CA        -3.9240   31.2330   14.5060 C.3   138  ASP138      0.1709
    169  C         -4.3820   31.4440   15.9330 C.2   138  ASP138      0.2293
    170  O         -4.2820   30.5500   16.7760 O.2   138  ASP138     -0.2864
    171  CB        -3.3640   29.8070   14.3720 C.3   138  ASP138      0.1436
    172  CG        -4.3950   28.7320   14.7200 C.2   138  ASP138      0.3671
    173  OD1       -5.5360   28.8030   14.2350 O.co2 138  ASP138     -0.2456
    174  OD2       -4.0680   27.8110   15.4880 O.co2 138  ASP138     -0.2456
@<TRIPOS>BOND
     1    93    92   ar
     2    93    91   ar
     3    92    90   ar
     4    91    89   ar
     5    74    72   ar
     6    74    75   ar
     7    72    70   ar
     8    75    73   ar
     9    70    69    1
    10    70    71   ar
    11    90    89   ar
    12    69    66    1
    13    89    88    1
    14    73    71   ar
    15    24    25    1
    16     7     5    1
    17    25    26    1
    18    25    28    1
    19    26    27    2
    20     1     2    1
    21    88    85    1
    22    48    47    2
    23    66    65    1
    24    66    67    1
    25    65    58   am
    26    68    67    2
    27     8     6    1
    28     5     2    1
    29     5     6    1
    30    20    19    2
    31    67    76   am
    32    19    18    1
    33     2     3    1
    34    85    84    1
    35    85    86    1
    36    47    56   am
    37    47    46    1
    38    57    58    1
    39    57    56    1
    40    57    60    1
    41    58    59    2
    42    87    86    2
    43    45    46    1
    44    29    30    1
    45   128   127    1
    46    84    78   am
    47    76    77    1
    48    86    94   am
    49    78    79    2
    50    78    77    1
    51    32    31    2
    52    18    17    1
    53    18    21    1
    54    46    49    1
    55    31    30    1
    56    77    80    1
    57    61    60    1
    58    61    62    1
    59    30    33    1
    60     3     9   am
    61     3     4    2
    62    22    21    1
    63   127   126    1
    64     9    10    1
    65   101   100    2
    66    21    23    1
    67    94    95    1
    68    64    62   ar
    69    49    50    1
    70    12    11    2
    71    62    63   ar
    72    80    81    1
    73    33    34    1
    74   126   125    1
    75    81    82    1
    76    81    83    1
    77    95    98    1
    78    95    96    1
    79    98    99    1
    80    10    11    1
    81   100    99    1
    82   100   102   am
    83    50    51   ar
    84    50    52   ar
    85    51    53   ar
    86    34    35    1
    87   125   124    1
    88    52    54   ar
    89    53    55   ar
    90    96    97    2
    91    96   103   am
    92    43    42    1
    93    15    14    1
    94    15    16    2
    95   103   104    1
    96    35    36    1
    97   160   159    1
    98    14    13    1
    99   124   121    1
   100    54    55   ar
   101    40    39    1
   102    40    41    2
   103    42    39    1
   104    42    44    1
   105   161   159    1
   106    36    37    1
   107   158   159    1
   108   158   155    1
   109    39    38    1
   110   123   122    2
   111   104   107    1
   112   104   105    1
   113   121   122    1
   114   121   120    1
   115   109   108   ar
   116   106   105    2
   117   156   155    1
   118   156   157    2
   119   108   107    1
   120   108   110   ar
   121   155   154    1
   122   120   113   am
   123   166   163    1
   124   131   132    2
   125   131   130    1
   126   133   130    1
   127   133   134    1
   128   140   139    2
   129   113   114    2
   130   113   112    1
   131   167   168    1
   132   167   164   am
   133   130   129    1
   134   163   164    1
   135   163   162    1
   136   173   172   ar
   137   135   134   ar
   138   171   168    1
   139   171   172    1
   140   168   169    1
   141   134   136   ar
   142   111   112    1
   143   172   174   ar
   144   164   165    2
   145   112   115    1
   146   139   138    1
   147   139   146   am
   148   115   116    1
   149   116   117    1
   150   138   141    1
   151   138   137    1
   152   147   148    1
   153   147   146    1
   154   147   150    1
   155   141   142    1
   156   148   149    2
   157   142   143    1
   158   150   151    1
   159   169   170    2
   160   117   118    1
   161   118   119    1
   162   143   145   am
   163   143   144    2
   164   151   153   am
   165   151   152    2
