@<TRIPOS>MOLECULE
tmp/2w1aD00.pdb
 116 107 0 0 0
SMALL
GASTEIGER

@<TRIPOS>ATOM
      1  N         20.4580   47.7190   -6.8270 N.3    24  ARG24      -0.1245
      2  CA        19.9250   48.9370   -6.2150 C.3    24  ARG24       0.1563
      3  C         19.9830   50.1430   -7.1510 C.2    24  ARG24       0.2260
      4  O         19.0550   50.9550   -7.1690 O.2    24  ARG24      -0.2867
      5  CB        20.6870   49.2480   -4.9280 C.3    24  ARG24       0.0307
      6  CG        19.9520   50.1690   -3.9830 C.3    24  ARG24       0.0489
      7  CD        20.9030   50.7690   -2.9590 C.3    24  ARG24       0.2205
      8  NE        20.2250   51.7170   -2.0860 N.pl3  24  ARG24      -0.0865
      9  CZ        19.9000   52.9600   -2.4370 C.cat  24  ARG24       0.5346
     10  NH1       20.1600   53.4250   -3.6570 N.pl3  24  ARG24       0.1354
     11  NH2       19.2880   53.7440   -1.5600 N.pl3  24  ARG24       0.1354
     12  N         16.8500   52.2710   -8.4810 N.3    28  SER28      -0.1217
     13  CA        16.9280   53.7060   -8.2180 C.3    28  SER28       0.1889
     14  C         16.6780   54.5160   -9.4930 C.2    28  SER28       0.2288
     15  O         15.9430   55.5030   -9.4720 O.2    28  SER28      -0.2866
     16  CB        18.3010   54.0580   -7.6170 C.3    28  SER28       0.2089
     17  OG        18.4110   55.4430   -7.3320 O.3    28  SER28      -0.2183
     18  N         12.9030   54.4130  -10.5220 N.3    31  ILE31      -0.1231
     19  CA        12.0810   55.3230   -9.7070 C.3    31  ILE31       0.1692
     20  C         12.2300   56.7640  -10.2030 C.2    31  ILE31       0.2592
     21  O         11.2530   57.5130  -10.2430 O.2    31  ILE31      -0.2718
     22  CB        12.4560   55.2930   -8.2020 C.3    31  ILE31       0.0266
     23  CG1       12.1980   53.9190   -7.5750 C.3    31  ILE31       0.0019
     24  CG2       11.6560   56.3350   -7.4320 C.3    31  ILE31       0.0020
     25  CD1       12.8340   53.7610   -6.1890 C.3    31  ILE31       0.0001
     26  N         13.4530   57.1400  -10.5750 N.am   32  GLY32      -0.1957
     27  CA        13.7390   58.4810  -11.1020 C.3    32  GLY32       0.1869
     28  C         13.1060   58.7600  -12.4580 C.2    32  GLY32       0.2309
     29  O         12.5960   59.8570  -12.7010 O.2    32  GLY32      -0.2863
     30  N          9.1040   59.0590  -12.0790 N.3    35  ARG35      -0.1245
     31  CA         8.7390   60.3480  -11.4930 C.3    35  ARG35       0.1563
     32  C          8.9250   61.5020  -12.4830 C.2    35  ARG35       0.2260
     33  O          8.1220   62.4360  -12.5070 O.2    35  ARG35      -0.2867
     34  CB         9.5550   60.6050  -10.2210 C.3    35  ARG35       0.0307
     35  CG         9.1020   61.8260   -9.4370 C.3    35  ARG35       0.0489
     36  CD         9.5900   61.8010   -7.9950 C.3    35  ARG35       0.2205
     37  NE        11.0500   61.7410   -7.9190 N.pl3  35  ARG35      -0.0865
     38  CZ        11.7620   60.7200   -7.4370 C.cat  35  ARG35       0.5346
     39  NH1       11.1890   59.6370   -6.9300 N.pl3  35  ARG35       0.1354
     40  NH2       13.0790   60.7990   -7.4450 N.pl3  35  ARG35       0.1354
     41  N         13.9520   65.3260  -10.0900 N.3    42  ARG42      -0.1231
     42  CA        14.9830   64.3000  -10.2750 C.3    42  ARG42       0.1694
     43  C         15.3200   63.6350   -8.9390 C.2    42  ARG42       0.2592
     44  O         15.4140   62.4070   -8.8410 O.2    42  ARG42      -0.2718
     45  CB        16.2430   64.9380  -10.8750 C.3    42  ARG42       0.0321
     46  CG        17.2480   63.9480  -11.4420 C.3    42  ARG42       0.0489
     47  CD        18.5730   64.6260  -11.7320 C.3    42  ARG42       0.2205
     48  NE        19.3410   63.9090  -12.7500 N.pl3  42  ARG42      -0.0865
     49  CZ        19.1180   63.9800  -14.0650 C.cat  42  ARG42       0.5346
     50  NH1       18.1370   64.7390  -14.5670 N.pl3  42  ARG42       0.1354
     51  NH2       19.8890   63.2860  -14.8950 N.pl3  42  ARG42       0.1354
     52  N         15.4960   64.4750   -7.9220 N.am   43  LEU43      -0.1966
     53  CA        15.8690   64.0490   -6.5890 C.3    43  LEU43       0.1728
     54  C         14.7450   64.3610   -5.5980 C.2    43  LEU43       0.2616
     55  O         13.9490   65.2730   -5.8150 O.2    43  LEU43      -0.2715
     56  CB        17.1410   64.7830   -6.1610 C.3    43  LEU43       0.0311
     57  CG        18.2830   64.8630   -7.1830 C.3    43  LEU43       0.0022
     58  CD1       19.2800   65.9200   -6.7420 C.3    43  LEU43       0.0001
     59  CD2       18.9630   63.5130   -7.3720 C.3    43  LEU43       0.0001
     60  N         14.6870   63.5880   -4.5160 N.am   44  VAL44      -0.1977
     61  CA        13.7780   63.8610   -3.4020 C.3    44  VAL44       0.1596
     62  C         14.6100   63.9350   -2.1200 C.2    44  VAL44       0.2287
     63  O         15.0860   62.9270   -1.6040 O.2    44  VAL44      -0.2864
     64  CB        12.6450   62.8040   -3.2710 C.3    44  VAL44       0.0276
     65  CG1       11.6630   63.2060   -2.1790 C.3    44  VAL44       0.0022
     66  CG2       11.9020   62.6470   -4.5870 C.3    44  VAL44       0.0022
     67  N         13.7880   61.7990    1.0980 N.3    47  ARG47      -0.1231
     68  CA        14.0290   60.3680    0.8850 C.3    47  ARG47       0.1694
     69  C         15.5230   60.0100    0.9620 C.2    47  ARG47       0.2591
     70  O         15.8970   58.9520    1.4850 O.2    47  ARG47      -0.2718
     71  CB        13.4410   59.9420   -0.4710 C.3    47  ARG47       0.0321
     72  CG        13.6980   58.4940   -0.8700 C.3    47  ARG47       0.0489
     73  CD        13.0710   57.5150    0.1020 C.3    47  ARG47       0.2205
     74  NE        13.3250   56.1370   -0.3030 N.pl3  47  ARG47      -0.0865
     75  CZ        12.6380   55.0830    0.1320 C.cat  47  ARG47       0.5346
     76  NH1       12.9420   53.8720   -0.3140 N.pl3  47  ARG47       0.1354
     77  NH2       11.6420   55.2290    1.0030 N.pl3  47  ARG47       0.1354
     78  N         16.3670   60.8880    0.4260 N.am   48  GLU48      -0.1979
     79  CA        17.8120   60.7240    0.5200 C.3    48  GLU48       0.1602
     80  C         18.2780   60.8040    1.9760 C.2    48  GLU48       0.2287
     81  O         19.2500   60.1490    2.3480 O.2    48  GLU48      -0.2864
     82  CB        18.5370   61.7590   -0.3620 C.3    48  GLU48       0.0415
     83  CG        18.1850   61.6210   -1.8530 C.3    48  GLU48       0.1163
     84  CD        19.2650   62.0970   -2.8220 C.2    48  GLU48       0.3649
     85  OE1       20.1010   62.9590   -2.4670 O.co2  48  GLU48      -0.2457
     86  OE2       19.2670   61.6000   -3.9660 O.co2  48  GLU48      -0.2457
     87  N         17.5520   57.3400    3.4880 N.3    51  VAL51      -0.1245
     88  CA        18.6220   56.4410    3.0220 C.3    51  VAL51       0.1561
     89  C         19.9270   56.6480    3.8090 C.2    51  VAL51       0.2260
     90  O         20.5460   55.6800    4.2350 O.2    51  VAL51      -0.2867
     91  CB        18.8890   56.6100    1.4900 C.3    51  VAL51       0.0252
     92  CG1       20.1000   55.8070    1.0470 C.3    51  VAL51       0.0019
     93  CG2       17.6700   56.1930    0.6810 C.3    51  VAL51       0.0019
     94  N         23.5750   56.5770   -3.4010 N.3    70  LEU70      -0.1245
     95  CA        22.7080   57.5870   -4.0420 C.3    70  LEU70       0.1561
     96  C         23.2900   58.0750   -5.3720 C.2    70  LEU70       0.2260
     97  O         22.5510   58.2770   -6.3250 O.2    70  LEU70      -0.2867
     98  CB        22.4470   58.7850   -3.1030 C.3    70  LEU70       0.0270
     99  CG        21.5460   58.4810   -1.8960 C.3    70  LEU70       0.0019
    100  CD1       21.5710   59.5980   -0.8750 C.3    70  LEU70       0.0001
    101  CD2       20.1280   58.1990   -2.3410 C.3    70  LEU70       0.0001
    102  N         22.7820   55.5160   -8.0770 N.3    73  GLY73      -0.1210
    103  CA        21.3780   55.5100   -8.4880 C.3    73  GLY73       0.1956
    104  C         20.9260   56.7060   -9.3190 C.2    73  GLY73       0.2611
    105  O         20.4780   56.5400  -10.4520 O.2    73  GLY73      -0.2717
    106  N         21.0300   57.9100   -8.7550 N.am   74  ARG74      -0.1979
    107  CA        20.5680   59.1370   -9.4420 C.3    74  ARG74       0.1597
    108  C         21.6970   59.9720  -10.0450 C.2    74  ARG74       0.2287
    109  O         21.4560   61.0740  -10.5110 O.2    74  ARG74      -0.2864
    110  CB        19.6560   60.0100   -8.5450 C.3    74  ARG74       0.0334
    111  CG        20.1270   60.2800   -7.1160 C.3    74  ARG74       0.0492
    112  CD        21.3900   61.1490   -7.0460 C.3    74  ARG74       0.2205
    113  NE        21.6540   61.5560   -5.6750 N.pl3  74  ARG74      -0.0865
    114  CZ        22.7890   62.0910   -5.2380 C.cat  74  ARG74       0.5346
    115  NH1       23.8090   62.3070   -6.0560 N.pl3  74  ARG74       0.1354
    116  NH2       22.8980   62.4130   -3.9590 N.pl3  74  ARG74       0.1354
@<TRIPOS>BOND
     1    51    49    1
     2    50    49    1
     3    49    48    2
     4    48    47    1
     5    29    28    2
     6    33    32    2
     7    32    31    1
     8    28    27    1
     9    30    31    1
    10    47    46    1
    11    31    34    1
    12    46    45    1
    13    27    26    1
    14    45    42    1
    15    26    20   am
    16    18    19    1
    17   109   108    2
    18   105   104    2
    19    42    41    1
    20    42    43    1
    21    21    20    2
    22    34    35    1
    23    20    19    1
    24   108   107    1
    25    19    22    1
    26    14    15    2
    27    14    13    1
    28   107   106    1
    29   107   110    1
    30    35    36    1
    31   104   106   am
    32   104   103    1
    33    43    44    2
    34    43    52   am
    35   110   111    1
    36   103   102    1
    37    12    13    1
    38    13    16    1
    39    22    23    1
    40    22    24    1
    41    36    37    1
    42    52    53    1
    43    37    38    2
    44    16    17    1
    45    23    25    1
    46    40    38    1
    47    38    39    1
    48    59    57    1
    49    57    58    1
    50    57    56    1
    51     4     3    2
    52     3     2    1
    53   111   112    1
    54   112   113    1
    55     1     2    1
    56    53    56    1
    57    53    54    1
    58    97    96    2
    59     2     5    1
    60   115   114    1
    61    55    54    2
    62   113   114    2
    63    54    60   am
    64    96    95    1
    65   114   116    1
    66     5     6    1
    67    66    64    1
    68    60    61    1
    69    95    94    1
    70    95    98    1
    71     6     7    1
    72    86    84   ar
    73    10     9    1
    74    61    64    1
    75    61    62    1
    76    64    65    1
    77    98    99    1
    78     7     8    1
    79    84    85   ar
    80    84    83    1
    81     9     8    2
    82     9    11    1
    83   101    99    1
    84    62    63    2
    85    99   100    1
    86    83    82    1
    87    72    71    1
    88    72    73    1
    89    71    68    1
    90    82    79    1
    91    76    75    1
    92    74    73    1
    93    74    75    2
    94    75    77    1
    95    78    79    1
    96    78    69   am
    97    79    80    1
    98    93    91    1
    99    68    69    1
   100    68    67    1
   101    69    70    2
   102    92    91    1
   103    91    88    1
   104    80    81    2
   105    88    87    1
   106    88    89    1
   107    89    90    2
