@<TRIPOS>MOLECULE
tmp/2w1aA00.pdb
 129 126 0 0 0
SMALL
GASTEIGER

@<TRIPOS>ATOM
      1  N          9.4310  114.8090    5.8400 N.3     5  ILE5       -0.1231
      2  CA         9.7030  113.3820    5.7110 C.3     5  ILE5        0.1678
      3  C          9.3670  112.6930    7.0300 C.2     5  ILE5        0.2434
      4  O         10.0300  112.9460    8.0330 O.2     5  ILE5       -0.2733
      5  CB        11.1910  113.1020    5.3420 C.3     5  ILE5        0.0265
      6  CG1       11.6310  113.9460    4.1330 C.3     5  ILE5        0.0019
      7  CG2       11.3950  111.6190    5.0500 C.3     5  ILE5        0.0020
      8  CD1       10.8630  113.6340    2.8400 C.3     5  ILE5        0.0001
      9  N          8.3220  111.8410    7.0380 N.am    6  PRO6       -0.2718
     10  CA         7.9720  111.0230    8.1990 C.3     6  PRO6        0.1535
     11  C          9.1130  110.1790    8.7500 C.2     6  PRO6        0.2598
     12  O          9.8400  109.5410    7.9970 O.2     6  PRO6       -0.2715
     13  CB         6.8600  110.1080    7.6680 C.3     6  PRO6        0.0310
     14  CG         6.2390  110.8700    6.5820 C.3     6  PRO6        0.0237
     15  CD         7.3610  111.6380    5.9390 C.3     6  PRO6        0.0939
     16  N          9.2550  110.1980   10.0690 N.am    7  ILE7       -0.1964
     17  CA        10.1880  109.3470   10.7760 C.3     7  ILE7        0.1727
     18  C          9.4240  108.0820   11.1050 C.2     7  ILE7        0.2616
     19  O          8.5030  108.1110   11.9160 O.2     7  ILE7       -0.2715
     20  CB        10.6890  110.0160   12.0860 C.3     7  ILE7        0.0290
     21  CG1       11.3770  111.3480   11.7690 C.3     7  ILE7        0.0022
     22  CG2       11.6230  109.0720   12.8450 C.3     7  ILE7        0.0023
     23  CD1       11.5880  112.2370   12.9670 C.3     7  ILE7        0.0001
     24  N          9.7860  106.9780   10.4610 N.am    8  ASP8       -0.1971
     25  CA         9.1160  105.7100   10.7080 C.3     8  ASP8        0.1709
     26  C          9.3620  105.2780   12.1560 C.2     8  ASP8        0.2293
     27  O         10.5080  105.2050   12.6070 O.2     8  ASP8       -0.2864
     28  CB         9.6010  104.6220    9.7370 C.3     8  ASP8        0.1436
     29  CG         9.1560  104.8700    8.2880 C.2     8  ASP8        0.3671
     30  OD1        8.2630  104.1430    7.8000 O.co2   8  ASP8       -0.2456
     31  OD2        9.7010  105.7880    7.6370 O.co2   8  ASP8       -0.2456
     32  N         14.0520  105.9690   18.4960 N.3    49  VAL49      -0.1245
     33  CA        14.2820  105.7210   17.0720 C.3    49  VAL49       0.1561
     34  C         15.7520  105.3580   16.8400 C.2    49  VAL49       0.2260
     35  O         16.0590  104.3410   16.2140 O.2    49  VAL49      -0.2867
     36  CB        13.8960  106.9750   16.2120 C.3    49  VAL49       0.0252
     37  CG1       14.2990  106.8030   14.7380 C.3    49  VAL49       0.0019
     38  CG2       12.4050  107.2620   16.3360 C.3    49  VAL49       0.0019
     39  N         18.6310  101.8990   15.0660 N.3    53  VAL53      -0.1231
     40  CA        19.1990  102.0940   13.7220 C.3    53  VAL53       0.1678
     41  C         20.5780  101.4180   13.5770 C.2    53  VAL53       0.2434
     42  O         21.2490  101.1550   14.5800 O.2    53  VAL53      -0.2733
     43  CB        19.3190  103.6050   13.3190 C.3    53  VAL53       0.0265
     44  CG1       17.9410  104.2730   13.2220 C.3    53  VAL53       0.0020
     45  CG2       20.2420  104.3610   14.2610 C.3    53  VAL53       0.0020
     46  N         20.9910  101.1000   12.3260 N.am   54  PRO54      -0.2729
     47  CA        22.3550  100.6200   12.0920 C.3    54  PRO54       0.1401
     48  C         23.4110  101.6150   12.5640 C.2    54  PRO54       0.2269
     49  O         23.2620  102.8170   12.3690 O.2    54  PRO54      -0.2865
     50  CB        22.4210  100.4500   10.5680 C.3    54  PRO54       0.0296
     51  CG        21.0200  100.2670   10.1340 C.3    54  PRO54       0.0237
     52  CD        20.2000  101.1100   11.0790 C.3    54  PRO54       0.0939
     53  N         24.3840  120.1310    7.1170 N.3    89  PHE89      -0.1227
     54  CA        23.6060  119.2350    6.2640 C.3    89  PHE89       0.1736
     55  C         23.6390  119.6850    4.7740 C.2    89  PHE89       0.2595
     56  O         23.7100  118.8600    3.8610 O.2    89  PHE89      -0.2718
     57  CB        22.1630  119.0950    6.7880 C.3    89  PHE89       0.0547
     58  CG        22.0530  118.5950    8.2380 C.ar   89  PHE89      -0.0202
     59  CD1       23.0120  117.7430    8.8020 C.ar   89  PHE89      -0.0042
     60  CD2       20.9490  118.9480    9.0160 C.ar   89  PHE89      -0.0042
     61  CE1       22.8840  117.2840   10.1000 C.ar   89  PHE89      -0.0003
     62  CE2       20.8080  118.4880   10.3160 C.ar   89  PHE89      -0.0003
     63  CZ        21.7750  117.6530   10.8640 C.ar   89  PHE89      -0.0000
     64  N         23.6660  120.9920    4.5450 N.am   90  MET90      -0.1979
     65  CA        23.6340  121.5600    3.2020 C.3    90  MET90       0.1605
     66  C         24.9250  121.2910    2.4280 C.2    90  MET90       0.2287
     67  O         24.8960  121.1350    1.2190 O.2    90  MET90      -0.2864
     68  CB        23.4180  123.0650    3.2960 C.3    90  MET90       0.0413
     69  CG        23.1870  123.7750    1.9610 C.3    90  MET90       0.0598
     70  SD        23.2350  125.5640    2.2130 S.3    90  MET90      -0.1393
     71  CE        25.0150  125.8510    2.1970 C.3    90  MET90       0.0692
     72  N         26.9120  118.6540    3.1700 N.3    92  ASN92      -0.1225
     73  CA        27.1930  117.2370    3.3120 C.3    92  ASN92       0.1785
     74  C         26.9850  116.5800    1.9560 C.2    92  ASN92       0.2597
     75  O         26.0800  115.7710    1.7740 O.2    92  ASN92      -0.2718
     76  CB        26.2790  116.6260    4.3850 C.3    92  ASN92       0.1169
     77  CG        26.7320  115.2600    4.8470 C.2    92  ASN92       0.2627
     78  OD1       27.9280  114.9670    4.8870 O.2    92  ASN92      -0.2716
     79  ND2       25.7680  114.4100    5.2110 N.am   92  ASN92      -0.0877
     80  N         27.8410  116.9410    1.0040 N.am   93  THR93      -0.1953
     81  CA        27.7160  116.5110   -0.3740 C.3    93  THR93       0.1897
     82  C         28.9630  115.7400   -0.8020 C.2    93  THR93       0.2313
     83  O         29.9990  115.8090   -0.1500 O.2    93  THR93      -0.2863
     84  CB        27.5190  117.7360   -1.3100 C.3    93  THR93       0.1794
     85  OG1       28.7350  118.4900   -1.3810 O.3    93  THR93      -0.2208
     86  CG2       26.3860  118.6350   -0.8140 C.3    93  THR93       0.0378
     87  N         17.5750  112.8190   14.4370 N.3   168  VAL168     -0.1231
     88  CA        17.4180  111.7750   13.4310 C.3   168  VAL168      0.1692
     89  C         17.9990  112.1960   12.0820 C.2   168  VAL168      0.2591
     90  O         18.5710  111.3880   11.3550 O.2   168  VAL168     -0.2718
     91  CB        15.9290  111.3920   13.2770 C.3   168  VAL168      0.0266
     92  CG1       15.7200  110.4690   12.0690 C.3   168  VAL168      0.0020
     93  CG2       15.4140  110.7480   14.5610 C.3   168  VAL168      0.0020
     94  N         17.8490  113.4720   11.7590 N.am  169  ARG169     -0.1980
     95  CA        18.4000  114.0420   10.5430 C.3   169  ARG169      0.1597
     96  C         19.9280  114.0690   10.5940 C.2   169  ARG169      0.2287
     97  O         20.5900  113.9030    9.5630 O.2   169  ARG169     -0.2864
     98  CB        17.8430  115.4530   10.3550 C.3   169  ARG169      0.0334
     99  CG        18.1400  116.0420    9.0060 C.3   169  ARG169      0.0492
    100  CD        17.5590  117.4300    8.8650 C.3   169  ARG169      0.2205
    101  NE        18.0080  118.0220    7.6130 N.pl3 169  ARG169     -0.0865
    102  CZ        17.9100  119.3070    7.2920 C.cat 169  ARG169      0.5346
    103  NH1       17.3720  120.1850    8.1280 N.pl3 169  ARG169      0.1354
    104  NH2       18.3730  119.7130    6.1220 N.pl3 169  ARG169      0.1354
    105  N         21.7230  111.7850   12.3200 N.3   171  TYR171     -0.1227
    106  CA        22.0850  110.3880   12.0970 C.3   171  TYR171      0.1736
    107  C         22.1140  110.0070   10.5970 C.2   171  TYR171      0.2595
    108  O         23.0940  109.4350   10.1320 O.2   171  TYR171     -0.2718
    109  CB        21.1580  109.4300   12.8630 C.3   171  TYR171      0.0548
    110  CG        21.2950  108.0260   12.3410 C.ar  171  TYR171     -0.0200
    111  CD1       22.3980  107.2510   12.6810 C.ar  171  TYR171     -0.0009
    112  CD2       20.3690  107.5040   11.4340 C.ar  171  TYR171     -0.0009
    113  CE1       22.5680  105.9810   12.1610 C.ar  171  TYR171      0.0417
    114  CE2       20.5280  106.2270   10.9070 C.ar  171  TYR171      0.0417
    115  CZ        21.6290  105.4740   11.2820 C.ar  171  TYR171      0.1957
    116  OH        21.7880  104.2100   10.7820 O.3   171  TYR171     -0.2866
    117  N         21.0350  110.3060    9.8690 N.am  172  ALA172     -0.1966
    118  CA        20.9550  110.0770    8.4060 C.3   172  ALA172      0.1728
    119  C         22.1350  110.6880    7.6390 C.2   172  ALA172      0.2616
    120  O         22.7430  110.0270    6.8060 O.2   172  ALA172     -0.2715
    121  CB        19.6330  110.6250    7.8430 C.3   172  ALA172      0.0334
    122  N         22.4490  111.9480    7.9320 N.am  173  ASN173     -0.1972
    123  CA        23.5880  112.6360    7.3310 C.3   173  ASN173      0.1688
    124  C         24.9380  112.0180    7.6950 C.2   173  ASN173      0.2292
    125  O         25.8220  111.9140    6.8460 O.2   173  ASN173     -0.2864
    126  CB        23.5670  114.1190    7.7200 C.3   173  ASN173      0.1181
    127  CG        22.6530  114.9330    6.8310 C.2   173  ASN173      0.2629
    128  OD1       23.0700  115.3970    5.7790 O.2   173  ASN173     -0.2716
    129  ND2       21.4130  115.1150    7.2490 N.am  173  ASN173     -0.0877
@<TRIPOS>BOND
     1    85    84    1
     2    84    86    1
     3    84    81    1
     4    82    81    1
     5    82    83    2
     6    81    80    1
     7    80    74   am
     8    67    66    2
     9    75    74    2
    10    74    73    1
    11    69    70    1
    12    69    68    1
    13    71    70    1
    14    66    65    1
    15     8     6    1
    16    72    73    1
    17    65    68    1
    18    65    64    1
    19    73    76    1
    20    56    55    2
    21     6     5    1
    22    76    77    1
    23    64    55   am
    24    55    54    1
    25    77    78    2
    26    77    79   am
    27     7     5    1
    28     5     2    1
    29     2     1    1
    30     2     3    1
    31   128   127    2
    32    15    14    1
    33    15     9    1
    34   104   102    1
    35    54    57    1
    36    54    53    1
    37    14    13    1
    38    57    58    1
    39   120   119    2
    40   127   129   am
    41   127   126    1
    42   125   124    2
    43     3     9   am
    44     3     4    2
    45     9    10    1
    46   102   101    2
    47   102   103    1
    48   123   124    1
    49   123   126    1
    50   123   122    1
    51   101   100    1
    52    31    29   ar
    53   119   122   am
    54   119   118    1
    55    13    10    1
    56    30    29   ar
    57   121   118    1
    58    12    11    2
    59    10    11    1
    60    58    59   ar
    61    58    60   ar
    62    29    28    1
    63   118   117    1
    64    11    16   am
    65    59    61   ar
    66   100    99    1
    67    99    98    1
    68    60    62   ar
    69    97    96    2
    70    28    25    1
    71   117   107   am
    72    16    17    1
    73    61    63   ar
    74   108   107    2
    75    51    50    1
    76    51    52    1
    77    62    63   ar
    78    98    95    1
    79    24    25    1
    80    24    18   am
    81    95    96    1
    82    95    94    1
    83    50    47    1
    84   107   106    1
    85    25    26    1
    86    17    18    1
    87    17    20    1
    88   116   115    1
    89   114   115   ar
    90   114   112   ar
    91    52    46    1
    92    18    19    2
    93   115   113   ar
    94    90    89    2
    95   112   110   ar
    96    94    89   am
    97    21    20    1
    98    21    23    1
    99    92    91    1
   100    89    88    1
   101    20    22    1
   102    47    46    1
   103    47    48    1
   104   106   105    1
   105   106   109    1
   106    26    27    2
   107   113   111   ar
   108    46    41   am
   109   110   111   ar
   110   110   109    1
   111    49    48    2
   112    44    43    1
   113    91    88    1
   114    91    93    1
   115    43    40    1
   116    43    45    1
   117    88    87    1
   118    41    40    1
   119    41    42    2
   120    40    39    1
   121    37    36    1
   122    36    38    1
   123    36    33    1
   124    35    34    2
   125    34    33    1
   126    33    32    1
