@<TRIPOS>MOLECULE
tmp/2w1aA01.pdb
 101 97 0 0 0
SMALL
GASTEIGER

@<TRIPOS>ATOM
      1  N         27.7500  121.0180    8.0530 N.3    88  THR88      -0.1203
      2  CA        26.3510  121.3470    7.8210 C.3    88  THR88       0.1994
      3  C         25.6900  120.2800    6.9550 C.2    88  THR88       0.2618
      4  O         26.3550  119.5880    6.1740 O.2    88  THR88      -0.2717
      5  CB        26.1820  122.7480    7.1940 C.3    88  THR88       0.1784
      6  OG1       26.7060  122.7600    5.8590 O.3    88  THR88      -0.2211
      7  CG2       26.8850  123.8070    8.0430 C.3    88  THR88       0.0376
      8  N         24.3840  120.1310    7.1170 N.am   89  PHE89      -0.1961
      9  CA        23.6060  119.2350    6.2640 C.3    89  PHE89       0.1771
     10  C         23.6390  119.6850    4.7740 C.2    89  PHE89       0.2619
     11  O         23.7100  118.8600    3.8610 O.2    89  PHE89      -0.2715
     12  CB        22.1630  119.0950    6.7880 C.3    89  PHE89       0.0574
     13  CG        22.0530  118.5950    8.2380 C.ar   89  PHE89      -0.0200
     14  CD1       23.0120  117.7430    8.8020 C.ar   89  PHE89      -0.0042
     15  CD2       20.9490  118.9480    9.0160 C.ar   89  PHE89      -0.0042
     16  CE1       22.8840  117.2840   10.1000 C.ar   89  PHE89      -0.0003
     17  CE2       20.8080  118.4880   10.3160 C.ar   89  PHE89      -0.0003
     18  CZ        21.7750  117.6530   10.8640 C.ar   89  PHE89      -0.0000
     19  N         23.6660  120.9920    4.5450 N.am   90  MET90      -0.1963
     20  CA        23.6340  121.5600    3.2020 C.3    90  MET90       0.1736
     21  C         24.9250  121.2910    2.4280 C.2    90  MET90       0.2616
     22  O         24.8960  121.1350    1.2190 O.2    90  MET90      -0.2715
     23  CB        23.4180  123.0650    3.2960 C.3    90  MET90       0.0427
     24  CG        23.1870  123.7750    1.9610 C.3    90  MET90       0.0599
     25  SD        23.2350  125.5640    2.2130 S.3    90  MET90      -0.1393
     26  CE        25.0150  125.8510    2.1970 C.3    90  MET90       0.0692
     27  N         26.0530  121.2570    3.1300 N.am   91  ASP91      -0.1971
     28  CA        27.3520  120.9720    2.5180 C.3    91  ASP91       0.1709
     29  C         27.8110  119.5110    2.6920 C.2    91  ASP91       0.2293
     30  O         28.9590  119.1650    2.3800 O.2    91  ASP91      -0.2864
     31  CB        28.3900  121.9380    3.0910 C.3    91  ASP91       0.1436
     32  CG        28.1050  123.3780    2.7040 C.2    91  ASP91       0.3671
     33  OD1       27.4430  124.1120    3.4840 O.co2  91  ASP91      -0.2456
     34  OD2       28.5120  123.7620    1.5910 O.co2  91  ASP91      -0.2456
     35  N         22.7930  130.0790   17.1510 N.3   145  TYR145     -0.1241
     36  CA        22.9580  128.8530   16.3670 C.3   145  TYR145      0.1605
     37  C         23.8290  127.8850   17.1690 C.2   145  TYR145      0.2264
     38  O         24.8810  128.2620   17.6680 O.2   145  TYR145     -0.2867
     39  CB        23.5920  129.1670   15.0010 C.3   145  TYR145      0.0534
     40  CG        23.9110  127.9740   14.1100 C.ar  145  TYR145     -0.0201
     41  CD1       25.2010  127.7740   13.6280 C.ar  145  TYR145     -0.0009
     42  CD2       22.9280  127.0490   13.7380 C.ar  145  TYR145     -0.0009
     43  CE1       25.5120  126.7060   12.8090 C.ar  145  TYR145      0.0417
     44  CE2       23.2370  125.9700   12.9020 C.ar  145  TYR145      0.0417
     45  CZ        24.5390  125.8100   12.4380 C.ar  145  TYR145      0.1957
     46  OH        24.8930  124.7440   11.6090 O.3   145  TYR145     -0.2866
     47  N         23.7360  122.0780   13.4680 N.3   148  ASP148     -0.1239
     48  CA        22.6080  121.5100   12.7330 C.3   148  ASP148      0.1674
     49  C         21.8570  120.3840   13.4530 C.2   148  ASP148      0.2266
     50  O         20.7140  120.0810   13.1090 O.2   148  ASP148     -0.2867
     51  CB        23.0840  121.0400   11.3460 C.3   148  ASP148      0.1410
     52  CG        23.0910  122.1590   10.3080 C.2   148  ASP148      0.3668
     53  OD1       22.8740  123.3360   10.6580 O.co2 148  ASP148     -0.2456
     54  OD2       23.2910  121.8510    9.1230 O.co2 148  ASP148     -0.2456
     55  N         18.7360  125.7020   13.2480 N.3   152  GLY152     -0.1210
     56  CA        19.1890  126.1830   11.9320 C.3   152  GLY152      0.1956
     57  C         20.0500  127.4370   11.9370 C.2   152  GLY152      0.2612
     58  O         19.8680  128.3220   12.7640 O.2   152  GLY152     -0.2717
     59  N         20.9850  127.4950   10.9890 N.am  153  PHE153     -0.1962
     60  CA        21.9220  128.6130   10.8060 C.3   153  PHE153      0.1771
     61  C         21.2290  129.8800   10.3360 C.2   153  PHE153      0.2619
     62  O         21.6890  130.9740   10.6400 O.2   153  PHE153     -0.2715
     63  CB        23.0050  128.2110    9.7840 C.3   153  PHE153      0.0574
     64  CG        24.0200  129.2900    9.4810 C.ar  153  PHE153     -0.0200
     65  CD1       25.1350  129.4660   10.2920 C.ar  153  PHE153     -0.0042
     66  CD2       23.8770  130.1050    8.3530 C.ar  153  PHE153     -0.0042
     67  CE1       26.0860  130.4510   10.0120 C.ar  153  PHE153     -0.0003
     68  CE2       24.8250  131.1000    8.0580 C.ar  153  PHE153     -0.0003
     69  CZ        25.9360  131.2700    8.8980 C.ar  153  PHE153     -0.0000
     70  N         20.1470  129.7290    9.5700 N.am  154  ALA154     -0.1977
     71  CA        19.4080  130.8680    9.0360 C.3   154  ALA154      0.1597
     72  C         18.9950  131.7990   10.1760 C.2   154  ALA154      0.2287
     73  O         18.4990  131.3250   11.2070 O.2   154  ALA154     -0.2864
     74  CB        18.1810  130.4030    8.2700 C.3   154  ALA154      0.0319
     75  N         15.9330  116.9200   14.4730 N.3   166  ARG166     -0.1245
     76  CA        17.3030  117.0680   13.9950 C.3   166  ARG166      0.1563
     77  C         18.2850  116.0410   14.5510 C.2   166  ARG166      0.2260
     78  O         19.3580  115.8680   13.9770 O.2   166  ARG166     -0.2867
     79  CB        17.8260  118.4680   14.2930 C.3   166  ARG166      0.0307
     80  CG        17.2830  119.5390   13.3650 C.3   166  ARG166      0.0489
     81  CD        17.6890  120.9240   13.8580 C.3   166  ARG166      0.2205
     82  NE        17.2600  121.9410   12.9160 N.pl3 166  ARG166     -0.0865
     83  CZ        17.8710  122.2360   11.7760 C.cat 166  ARG166      0.5346
     84  NH1       18.9820  121.6100   11.4130 N.pl3 166  ARG166      0.1354
     85  NH2       17.3550  123.1650   10.9910 N.pl3 166  ARG166      0.1354
     86  N         17.8490  113.4720   11.7590 N.3   169  ARG169     -0.1245
     87  CA        18.4000  114.0420   10.5430 C.3   169  ARG169      0.1563
     88  C         19.9280  114.0690   10.5940 C.2   169  ARG169      0.2260
     89  O         20.5900  113.9030    9.5630 O.2   169  ARG169     -0.2867
     90  CB        17.8430  115.4530   10.3550 C.3   169  ARG169      0.0307
     91  CG        18.1400  116.0420    9.0060 C.3   169  ARG169      0.0489
     92  CD        17.5590  117.4300    8.8650 C.3   169  ARG169      0.2205
     93  NE        18.0080  118.0220    7.6130 N.pl3 169  ARG169     -0.0865
     94  CZ        17.9100  119.3070    7.2920 C.cat 169  ARG169      0.5346
     95  NH1       17.3720  120.1850    8.1280 N.pl3 169  ARG169      0.1354
     96  NH2       18.3730  119.7130    6.1220 N.pl3 169  ARG169      0.1354
     97  N         30.3330  127.7570    8.8180 N.3   428  ALA428     -0.1245
     98  CA        29.1670  127.9400    9.6760 C.3   428  ALA428      0.1562
     99  C         29.6020  128.2530   11.1080 C.2   428  ALA428      0.2260
    100  O         28.7590  128.5000   11.9690 O.2   428  ALA428     -0.2867
    101  CB        28.2700  126.7030    9.6470 C.3   428  ALA428      0.0290
@<TRIPOS>BOND
     1    22    21    2
     2    34    32   ar
     3    24    25    1
     4    24    23    1
     5    26    25    1
     6    30    29    2
     7    21    27   am
     8    21    20    1
     9    28    29    1
    10    28    31    1
    11    28    27    1
    12    32    31    1
    13    32    33   ar
    14    20    23    1
    15    20    19    1
    16    11    10    2
    17    19    10   am
    18    10     9    1
    19     6     5    1
    20    96    94    1
    21     4     3    2
    22     9    12    1
    23     9     8    1
    24    12    13    1
    25     3     8   am
    26     3     2    1
    27     5     2    1
    28     5     7    1
    29    94    93    2
    30    94    95    1
    31    93    92    1
    32     2     1    1
    33    68    66   ar
    34    68    69   ar
    35    13    14   ar
    36    13    15   ar
    37    74    71    1
    38    66    64   ar
    39    14    16   ar
    40    97    98    1
    41    92    91    1
    42    69    67   ar
    43    91    90    1
    44    15    17   ar
    45    71    70    1
    46    71    72    1
    47    54    52   ar
    48    64    63    1
    49    64    65   ar
    50    89    88    2
    51    70    61   am
    52   101    98    1
    53    98    99    1
    54    63    60    1
    55    67    65   ar
    56    16    18   ar
    57    72    73    2
    58    52    53   ar
    59    52    51    1
    60    17    18   ar
    61    61    62    2
    62    61    60    1
    63    90    87    1
    64    87    88    1
    65    87    86    1
    66    60    59    1
    67    59    57   am
    68    85    83    1
    69    99   100    2
    70    51    48    1
    71    84    83    1
    72    46    45    1
    73    83    82    2
    74    56    57    1
    75    56    55    1
    76    57    58    2
    77    45    43   ar
    78    45    44   ar
    79    48    49    1
    80    48    47    1
    81    43    41   ar
    82    44    42   ar
    83    82    81    1
    84    50    49    2
    85    80    81    1
    86    80    79    1
    87    41    40   ar
    88    42    40   ar
    89    78    77    2
    90    76    79    1
    91    76    75    1
    92    76    77    1
    93    40    39    1
    94    39    36    1
    95    36    35    1
    96    36    37    1
    97    37    38    2
