@<TRIPOS>MOLECULE
tmp/2w1cA00.pdb
 163 154 0 0 0
SMALL
GASTEIGER

@<TRIPOS>ATOM
      1  N         -6.1730   28.0610    4.5690 N.3    11  ARG11      -0.1245
      2  CA        -5.6400   28.0070    3.2420 C.3    11  ARG11       0.1563
      3  C         -4.1650   27.7190    3.3060 C.2    11  ARG11       0.2260
      4  O         -3.4910   28.1180    4.2520 O.2    11  ARG11      -0.2867
      5  CB        -5.8680   29.3160    2.5190 C.3    11  ARG11       0.0307
      6  CG        -5.0660   30.4570    3.0680 C.3    11  ARG11       0.0489
      7  CD        -4.6760   31.3810    1.9680 C.3    11  ARG11       0.2205
      8  NE        -3.6660   32.3040    2.4370 N.pl3  11  ARG11      -0.0865
      9  CZ        -2.9010   33.0430    1.6510 C.cat  11  ARG11       0.5346
     10  NH1       -3.0190   32.9730    0.3330 N.pl3  11  ARG11       0.1354
     11  NH2       -2.0070   33.8480    2.1900 N.pl3  11  ARG11       0.1354
     12  N         -0.3390   27.8390    2.7290 N.3    13  LEU13      -0.1231
     13  CA         0.5860   28.9580    2.8420 C.3    13  LEU13       0.1696
     14  C          1.8320   28.7220    2.0080 C.2    13  LEU13       0.2632
     15  O          2.5070   29.6580    1.5930 O.2    13  LEU13      -0.2714
     16  CB         0.9420   29.2020    4.3120 C.3    13  LEU13       0.0284
     17  CG        -0.2240   29.6920    5.1860 C.3    13  LEU13       0.0019
     18  CD1        0.1330   29.6850    6.6610 C.3    13  LEU13       0.0001
     19  CD2       -0.6270   31.0810    4.7420 C.3    13  LEU13       0.0001
     20  N          2.1120   27.4620    1.7360 N.am   14  GLY14      -0.1718
     21  CA         3.2190   27.1330    0.8520 C.2    14  GLY14       0.1480
     22  C          3.6260   25.6800    0.8360 C.2    14  GLY14       0.2820
     23  O          2.8830   24.7960    1.2760 O.2    14  GLY14      -0.2669
     24  N          4.8320   25.4550    0.3200 N.am   15  LYS15      -0.1943
     25  CA         5.3500   24.1010    0.0840 C.3    15  LYS15       0.1599
     26  C          6.7380   23.8450    0.6630 C.2    15  LYS15       0.2287
     27  O          7.2420   24.5860    1.5080 O.2    15  LYS15      -0.2864
     28  CB         5.3470   23.7830   -1.4150 C.3    15  LYS15       0.0298
     29  CG         3.9410   23.6560   -1.9870 C.3    15  LYS15       0.0038
     30  CD         3.8260   24.2760   -3.3730 C.3    15  LYS15       0.0206
     31  CE         4.0430   25.7970   -3.3470 C.3    15  LYS15       0.1093
     32  NZ         3.2120   26.5030   -2.3160 N.3    15  LYS15      -0.1314
     33  N          2.6150   24.0090    4.5750 N.3    21  VAL21      -0.1245
     34  CA         2.1740   24.7750    5.7190 C.3    21  VAL21       0.1561
     35  C          0.8210   25.3820    5.4020 C.2    21  VAL21       0.2260
     36  O          0.5750   25.9040    4.3120 O.2    21  VAL21      -0.2867
     37  CB         3.1630   25.8760    6.1440 C.3    21  VAL21       0.0252
     38  CG1        2.8300   26.3250    7.5500 C.3    21  VAL21       0.0019
     39  CG2        4.5990   25.3710    6.0870 C.3    21  VAL21       0.0019
     40  N          0.1540   28.9910   12.0660 N.3    34  ALA34      -0.1245
     41  CA         0.4800   28.2140   10.8800 C.3    34  ALA34       0.1562
     42  C          0.8300   26.7930   11.2660 C.2    34  ALA34       0.2260
     43  O          1.4970   26.5420   12.2680 O.2    34  ALA34      -0.2867
     44  CB         1.6230   28.8610   10.1390 C.3    34  ALA34       0.0290
     45  N          2.6640   23.4800    9.9100 N.3    36  LYS36      -0.1245
     46  CA         3.6070   22.8710    8.9840 C.3    36  LYS36       0.1561
     47  C          3.3810   21.3870    9.0770 C.2    36  LYS36       0.2260
     48  O          3.5590   20.8100   10.1400 O.2    36  LYS36      -0.2867
     49  CB         5.0320   23.2210    9.4110 C.3    36  LYS36       0.0271
     50  CG         6.1080   22.9340    8.4030 C.3    36  LYS36       0.0035
     51  CD         7.3530   23.7630    8.7200 C.3    36  LYS36       0.0206
     52  CE         8.0750   24.2050    7.4400 C.3    36  LYS36       0.1093
     53  NZ         8.9000   25.4400    7.6270 N.3    36  LYS36      -0.1314
     54  N         10.6620   33.3820   14.4390 N.3    68  LEU68      -0.1245
     55  CA         9.3340   32.7500   14.3830 C.3    68  LEU68       0.1561
     56  C          9.1670   31.7610   15.5310 C.2    68  LEU68       0.2260
     57  O          9.9450   30.8160   15.6890 O.2    68  LEU68      -0.2867
     58  CB         9.0720   32.0650   13.0310 C.3    68  LEU68       0.0270
     59  CG         7.6140   31.8590   12.6200 C.3    68  LEU68       0.0019
     60  CD1        6.8860   33.1960   12.4860 C.3    68  LEU68       0.0001
     61  CD2        7.5770   31.1130   11.3140 C.3    68  LEU68       0.0001
     62  N          3.2430   26.5760   14.1890 N.3    84  LEU84      -0.1231
     63  CA         4.0950   27.7450   14.0160 C.3    84  LEU84       0.1693
     64  C          3.3540   29.0480   14.1670 C.2    84  LEU84       0.2592
     65  O          2.2280   29.2110   13.6940 O.2    84  LEU84      -0.2718
     66  CB         4.7740   27.7040   12.6420 C.3    84  LEU84       0.0284
     67  CG         5.8300   26.6040   12.4930 C.3    84  LEU84       0.0019
     68  CD1        6.2870   26.4980   11.0550 C.3    84  LEU84       0.0001
     69  CD2        7.0120   26.8500   13.4180 C.3    84  LEU84       0.0001
     70  N          4.0120   29.9870   14.8260 N.am   85  GLU85      -0.1966
     71  CA         3.5630   31.3730   14.7690 C.3    85  GLU85       0.1733
     72  C          3.3080   31.7080   13.3140 C.2    85  GLU85       0.2616
     73  O          4.0310   31.2700   12.4270 O.2    85  GLU85      -0.2715
     74  CB         4.6000   32.3440   15.3340 C.3    85  GLU85       0.0429
     75  CG         4.4040   33.7790   14.8600 C.3    85  GLU85       0.1163
     76  CD         5.4300   34.7380   15.4520 C.2    85  GLU85       0.3649
     77  OE1        5.3650   35.9420   15.1130 O.co2  85  GLU85      -0.2457
     78  OE2        6.2920   34.2950   16.2570 O.co2  85  GLU85      -0.2457
     79  N          2.2740   32.4960   13.0790 N.am   86  TYR86      -0.1960
     80  CA         1.8780   32.8630   11.7190 C.3    86  TYR86       0.1771
     81  C          2.2950   34.2940   11.4050 C.2    86  TYR86       0.2619
     82  O          2.0990   35.2040   12.1980 O.2    86  TYR86      -0.2715
     83  CB         0.3760   32.6540   11.5360 C.3    86  TYR86       0.0574
     84  CG        -0.2360   33.5660   10.5200 C.ar   86  TYR86      -0.0198
     85  CD1       -0.2870   33.2110    9.1820 C.ar   86  TYR86      -0.0009
     86  CD2       -0.7830   34.7790   10.9000 C.ar   86  TYR86      -0.0009
     87  CE1       -0.8620   34.0410    8.2490 C.ar   86  TYR86       0.0417
     88  CE2       -1.3590   35.6180    9.9790 C.ar   86  TYR86       0.0417
     89  CZ        -1.3940   35.2470    8.6530 C.ar   86  TYR86       0.1957
     90  OH        -1.9630   36.0940    7.7300 O.3    86  TYR86      -0.2866
     91  N          2.9070   34.4790   10.2490 N.am   87  ALA87      -0.1964
     92  CA         3.4920   35.7640    9.9180 C.3    87  ALA87       0.1713
     93  C          2.7350   36.3700    8.7630 C.2    87  ALA87       0.2458
     94  O          2.9530   36.0220    7.6020 O.2    87  ALA87      -0.2730
     95  CB         4.9590   35.6160    9.5830 C.3    87  ALA87       0.0333
     96  N          1.8410   37.2990    9.0820 N.am   88  PRO88      -0.2716
     97  CA         0.8700   37.9070    8.1880 C.3    88  PRO88       0.1536
     98  C          1.4350   38.3250    6.8470 C.2    88  PRO88       0.2598
     99  O          0.7750   38.1900    5.8280 O.2    88  PRO88      -0.2715
    100  CB         0.4420   39.1570    8.9490 C.3    88  PRO88       0.0310
    101  CG         0.6520   38.8240   10.3480 C.3    88  PRO88       0.0237
    102  CD         1.8400   37.9390   10.4030 C.3    88  PRO88       0.0939
    103  N          2.6580   38.8250    6.8530 N.am   89  LEU89      -0.1964
    104  CA         3.1570   39.5710    5.6940 C.3    89  LEU89       0.1728
    105  C          4.0860   38.7660    4.8020 C.2    89  LEU89       0.2617
    106  O          4.9390   39.3130    4.1140 O.2    89  LEU89      -0.2715
    107  CB         3.8550   40.8550    6.1480 C.3    89  LEU89       0.0311
    108  CG         2.8500   41.9190    6.5710 C.3    89  LEU89       0.0022
    109  CD1        3.5300   43.1750    7.0630 C.3    89  LEU89       0.0001
    110  CD2        1.9740   42.1980    5.3850 C.3    89  LEU89       0.0001
    111  N          3.9220   37.4580    4.8200 N.am   90  GLY90      -0.1940
    112  CA         4.6290   36.6190    3.8600 C.3    90  GLY90       0.2014
    113  C          6.1190   36.6480    4.0310 C.2    90  GLY90       0.2639
    114  O          6.6300   36.9920    5.0970 O.2    90  GLY90      -0.2714
    115  N          6.8130   36.3030    2.9570 N.am   91  THR91      -0.1950
    116  CA         8.2740   36.1980    3.0040 C.3    91  THR91       0.1897
    117  C          8.9590   37.4250    2.4090 C.2    91  THR91       0.2313
    118  O          8.3760   38.1560    1.5980 O.2    91  THR91      -0.2863
    119  CB         8.7870   34.9000    2.3110 C.3    91  THR91       0.1794
    120  OG1        8.6320   35.0030    0.8900 O.3    91  THR91      -0.2208
    121  CG2        8.0230   33.6860    2.8240 C.3    91  THR91       0.0378
    122  N          9.4180   36.9180   -1.1590 N.3    94  ARG94      -0.1231
    123  CA         8.2780   37.3030   -1.9830 C.3    94  ARG94       0.1694
    124  C          8.2430   38.8120   -2.1770 C.2    94  ARG94       0.2591
    125  O          7.9360   39.3030   -3.2530 O.2    94  ARG94      -0.2718
    126  CB         6.9590   36.7940   -1.3990 C.3    94  ARG94       0.0321
    127  CG         6.1170   36.0760   -2.4270 C.3    94  ARG94       0.0489
    128  CD         5.7300   37.0310   -3.5340 C.3    94  ARG94       0.2205
    129  NE         5.0510   36.3810   -4.6420 N.pl3  94  ARG94      -0.0865
    130  CZ         4.9000   36.9440   -5.8340 C.cat  94  ARG94       0.5346
    131  NH1        4.2520   36.3070   -6.7990 N.pl3  94  ARG94       0.1354
    132  NH2        5.4060   38.1490   -6.0590 N.pl3  94  ARG94       0.1354
    133  N          8.6010   39.5400   -1.1300 N.am   95  GLU95      -0.1979
    134  CA         8.6400   41.0070   -1.1890 C.3    95  GLU95       0.1602
    135  C          9.7330   41.4390   -2.1310 C.2    95  GLU95       0.2287
    136  O          9.7500   42.5590   -2.6170 O.2    95  GLU95      -0.2864
    137  CB         8.9210   41.6310    0.1820 C.3    95  GLU95       0.0415
    138  CG         8.4680   43.0840    0.3000 C.3    95  GLU95       0.1163
    139  CD         6.9400   43.2170    0.3250 C.2    95  GLU95       0.3649
    140  OE1        6.4490   44.3300    0.6350 O.co2  95  GLU95      -0.2457
    141  OE2        6.2290   42.2080    0.0440 O.co2  95  GLU95      -0.2457
    142  N         14.1160   33.1790    1.5510 N.3   134  GLU134     -0.1245
    143  CA        12.9470   32.2940    1.6100 C.3   134  GLU134      0.1567
    144  C         12.6220   31.9420    3.0520 C.2   134  GLU134      0.2260
    145  O         11.5490   31.4370    3.3600 O.2   134  GLU134     -0.2867
    146  CB        13.1710   30.9810    0.8610 C.3   134  GLU134      0.0388
    147  CG        13.9500   31.0720   -0.4360 C.3   134  GLU134      0.1160
    148  CD        13.7880   29.8030   -1.2780 C.2   134  GLU134      0.3649
    149  OE1       12.7330   29.1350   -1.1250 O.co2 134  GLU134     -0.2457
    150  OE2       14.6940   29.4760   -2.0880 O.co2 134  GLU134     -0.2457
    151  N         10.3870   35.5980    7.3270 N.3   137  LEU137     -0.1245
    152  CA         8.9890   35.9700    7.3560 C.3   137  LEU137      0.1561
    153  C          8.8130   37.3730    7.8980 C.2   137  LEU137      0.2260
    154  O          9.6980   37.9280    8.5550 O.2   137  LEU137     -0.2867
    155  CB         8.1980   34.9710    8.1830 C.3   137  LEU137      0.0270
    156  CG         8.0700   33.6630    7.4120 C.3   137  LEU137      0.0019
    157  CD1        7.7260   32.4800    8.3050 C.3   137  LEU137      0.0001
    158  CD2        7.0340   33.8490    6.3130 C.3   137  LEU137      0.0001
    159  N         12.6700   32.2300   10.2610 N.3   147  ALA147     -0.1245
    160  CA        12.0170   30.9410   10.3930 C.3   147  ALA147      0.1562
    161  C         13.0190   29.8270   10.2540 C.2   147  ALA147      0.2260
    162  O         14.2260   30.0420   10.2190 O.2   147  ALA147     -0.2867
    163  CB        10.9300   30.7750    9.3510 C.3   147  ALA147      0.0290
@<TRIPOS>BOND
     1   131   130    1
     2   132   130    1
     3   130   129    2
     4   129   128    1
     5   128   127    1
     6    30    31    1
     7    30    29    1
     8    31    32    1
     9   125   124    2
    10   136   135    2
    11   127   126    1
    12   124   123    1
    13   124   133   am
    14   135   134    1
    15   150   148   ar
    16    29    28    1
    17   123   126    1
    18   123   122    1
    19    28    25    1
    20   148   149   ar
    21   148   147    1
    22   134   133    1
    23   134   137    1
    24   147   146    1
    25   141   139   ar
    26    25    24    1
    27    25    26    1
    28   137   138    1
    29   138   139    1
    30    24    22   am
    31   139   140   ar
    32    10     9    1
    33    26    27    2
    34    22    21    1
    35    22    23    2
    36    21    20    2
    37   146   143    1
    38   120   119    1
    39   142   143    1
    40    15    14    2
    41   118   117    2
    42   143   144    1
    43     9    11    1
    44     9     8    2
    45    20    14    1
    46     7     8    1
    47     7     6    1
    48    14    13    1
    49   119   121    1
    50   119   116    1
    51   117   116    1
    52     5     6    1
    53     5     2    1
    54    12    13    1
    55    13    16    1
    56   115   116    1
    57   115   113   am
    58   144   145    2
    59     2     3    1
    60     2     1    1
    61     3     4    2
    62   112   113    1
    63   112   111    1
    64   113   114    2
    65   106   105    2
    66    36    35    2
    67    16    17    1
    68    33    34    1
    69    19    17    1
    70   105   111   am
    71   105   104    1
    72    17    18    1
    73   110   108    1
    74    35    34    1
    75   104   107    1
    76   104   103    1
    77    34    37    1
    78    99    98    2
    79    39    37    1
    80    37    38    1
    81   107   108    1
    82   158   156    1
    83   108   109    1
    84    98   103   am
    85    98    97    1
    86   151   152    1
    87   152   153    1
    88   152   155    1
    89   156   155    1
    90   156   157    1
    91    52    53    1
    92    52    51    1
    93    94    93    2
    94    90    89    1
    95   153   154    2
    96    97   100    1
    97    97    96    1
    98    87    89   ar
    99    87    85   ar
   100    50    51    1
   101    50    49    1
   102    89    88   ar
   103    93    96   am
   104    93    92    1
   105   100   101    1
   106    46    47    1
   107    46    49    1
   108    46    45    1
   109    47    48    2
   110    96   102    1
   111    85    84   ar
   112   163   160    1
   113    95    92    1
   114    92    91    1
   115    88    86   ar
   116    44    41    1
   117   162   161    2
   118    91    81   am
   119   161   160    1
   120   159   160    1
   121   101   102    1
   122    84    86   ar
   123    84    83    1
   124    41    42    1
   125    41    40    1
   126    68    67    1
   127    42    43    2
   128    61    59    1
   129    81    80    1
   130    81    82    2
   131    83    80    1
   132    80    79    1
   133    73    72    2
   134    60    59    1
   135    67    66    1
   136    67    69    1
   137    59    58    1
   138    66    63    1
   139    58    55    1
   140    79    72   am
   141    72    71    1
   142    65    64    2
   143    63    64    1
   144    63    62    1
   145    64    70   am
   146    55    54    1
   147    55    56    1
   148    71    70    1
   149    71    74    1
   150    75    74    1
   151    75    76    1
   152    77    76   ar
   153    76    78   ar
   154    56    57    2
