@<TRIPOS>MOLECULE
tmp/2w1dA00.pdb
 127 120 0 0 0
SMALL
GASTEIGER

@<TRIPOS>ATOM
      1  N         -6.2680   28.4670    4.6030 N.3    11  ARG11      -0.1245
      2  CA        -5.6620   28.6830    3.3030 C.3    11  ARG11       0.1563
      3  C         -4.2220   28.1910    3.3460 C.2    11  ARG11       0.2260
      4  O         -3.5310   28.3750    4.3420 O.2    11  ARG11      -0.2867
      5  CB        -5.7200   30.1540    2.8570 C.3    11  ARG11       0.0307
      6  CG        -4.5710   31.0160    3.2930 C.3    11  ARG11       0.0489
      7  CD        -4.0420   31.8360    2.1360 C.3    11  ARG11       0.2205
      8  NE        -3.1630   32.9060    2.6080 N.pl3  11  ARG11      -0.0865
      9  CZ        -2.2960   33.5660    1.8510 C.cat  11  ARG11       0.5346
     10  NH1       -2.1700   33.2750    0.5620 N.pl3  11  ARG11       0.1354
     11  NH2       -1.5530   34.5250    2.3880 N.pl3  11  ARG11       0.1354
     12  N         -0.3380   28.1040    2.7750 N.3    13  LEU13      -0.1245
     13  CA         0.6560   29.1580    2.8800 C.3    13  LEU13       0.1561
     14  C          1.9250   28.8390    2.1090 C.2    13  LEU13       0.2260
     15  O          2.5040   29.7040    1.4530 O.2    13  LEU13      -0.2867
     16  CB         0.9680   29.4290    4.3570 C.3    13  LEU13       0.0270
     17  CG        -0.1780   30.0350    5.1770 C.3    13  LEU13       0.0019
     18  CD1        0.1760   30.1370    6.6500 C.3    13  LEU13       0.0001
     19  CD2       -0.5300   31.3990    4.6120 C.3    13  LEU13       0.0001
     20  N          2.7980   24.1750    4.5420 N.3    21  VAL21      -0.1245
     21  CA         2.3650   24.9680    5.6960 C.3    21  VAL21       0.1561
     22  C          1.0260   25.6110    5.3810 C.2    21  VAL21       0.2260
     23  O          0.8210   26.1900    4.3110 O.2    21  VAL21      -0.2867
     24  CB         3.3670   26.0780    6.1010 C.3    21  VAL21       0.0252
     25  CG1        3.0500   26.5500    7.4930 C.3    21  VAL21       0.0019
     26  CG2        4.8000   25.5860    6.0490 C.3    21  VAL21       0.0019
     27  N          0.2080   28.9760   12.2040 N.3    34  ALA34      -0.1245
     28  CA         0.5960   28.2180   11.0080 C.3    34  ALA34       0.1562
     29  C          1.0150   26.8110   11.3530 C.2    34  ALA34       0.2260
     30  O          1.7430   26.5380   12.3080 O.2    34  ALA34      -0.2867
     31  CB         1.6820   28.9200   10.2420 C.3    34  ALA34       0.0290
     32  N          2.7530   23.5580    9.8540 N.3    36  LYS36      -0.1245
     33  CA         3.7000   22.9210    8.9330 C.3    36  LYS36       0.1561
     34  C          3.3280   21.4530    8.9240 C.2    36  LYS36       0.2260
     35  O          3.2000   20.8410    9.9720 O.2    36  LYS36      -0.2867
     36  CB         5.1480   23.1050    9.4360 C.3    36  LYS36       0.0271
     37  CG         6.2160   23.0980    8.3600 C.3    36  LYS36       0.0035
     38  CD         7.4590   23.8910    8.7890 C.3    36  LYS36       0.0206
     39  CE         8.1920   24.5030    7.5710 C.3    36  LYS36       0.1093
     40  NZ         8.8850   25.7960    7.9040 N.3    36  LYS36      -0.1314
     41  N         10.8730   33.2350   14.5570 N.3    68  LEU68      -0.1245
     42  CA         9.5330   32.6890   14.4400 C.3    68  LEU68       0.1561
     43  C          9.3710   31.8150   15.6480 C.2    68  LEU68       0.2260
     44  O         10.2360   30.9880   15.9410 O.2    68  LEU68      -0.2867
     45  CB         9.3000   31.8940   13.1480 C.3    68  LEU68       0.0270
     46  CG         7.8150   31.8320   12.7690 C.3    68  LEU68       0.0019
     47  CD1        7.3740   33.1470   12.1420 C.3    68  LEU68       0.0001
     48  CD2        7.5030   30.6840   11.8470 C.3    68  LEU68       0.0001
     49  N          3.3050   26.4960   14.3280 N.3    84  LEU84      -0.1231
     50  CA         4.1670   27.6690   14.2380 C.3    84  LEU84       0.1693
     51  C          3.4340   28.9810   14.3210 C.2    84  LEU84       0.2592
     52  O          2.3170   29.1450   13.8410 O.2    84  LEU84      -0.2718
     53  CB         4.9670   27.6330   12.9320 C.3    84  LEU84       0.0284
     54  CG         6.2260   26.7540   12.9170 C.3    84  LEU84       0.0019
     55  CD1        6.8840   26.7740   11.5440 C.3    84  LEU84       0.0001
     56  CD2        7.2040   27.2120   13.9840 C.3    84  LEU84       0.0001
     57  N          4.1060   29.9310   14.9320 N.am   85  GLU85      -0.1966
     58  CA         3.6910   31.3300   14.8040 C.3    85  GLU85       0.1733
     59  C          3.4280   31.6330   13.3460 C.2    85  GLU85       0.2616
     60  O          4.0410   31.0640   12.4580 O.2    85  GLU85      -0.2715
     61  CB         4.7590   32.2890   15.3360 C.3    85  GLU85       0.0429
     62  CG         4.6190   33.7070   14.8200 C.3    85  GLU85       0.1163
     63  CD         5.4770   34.6710   15.6110 C.2    85  GLU85       0.3649
     64  OE1        5.3000   35.8960   15.4520 O.co2  85  GLU85      -0.2457
     65  OE2        6.3300   34.2060   16.4040 O.co2  85  GLU85      -0.2457
     66  N          2.5100   32.5520   13.1240 N.am   86  TYR86      -0.1960
     67  CA         2.0630   32.9230   11.7760 C.3    86  TYR86       0.1771
     68  C          2.4110   34.3770   11.5120 C.2    86  TYR86       0.2619
     69  O          2.3090   35.2190   12.3950 O.2    86  TYR86      -0.2715
     70  CB         0.5670   32.6390   11.6060 C.3    86  TYR86       0.0574
     71  CG        -0.1270   33.5250   10.6010 C.ar   86  TYR86      -0.0198
     72  CD1       -0.0140   33.3130    9.2230 C.ar   86  TYR86      -0.0009
     73  CD2       -0.9190   34.5720   11.0290 C.ar   86  TYR86      -0.0009
     74  CE1       -0.6720   34.1380    8.3150 C.ar   86  TYR86       0.0417
     75  CE2       -1.5870   35.3870   10.1340 C.ar   86  TYR86       0.0417
     76  CZ        -1.4600   35.1750    8.7920 C.ar   86  TYR86       0.1957
     77  OH        -2.1370   36.0370    7.9700 O.3    86  TYR86      -0.2866
     78  N          2.8860   34.6350   10.3000 N.am   87  ALA87      -0.1964
     79  CA         3.5240   35.9100    9.9550 C.3    87  ALA87       0.1713
     80  C          2.8100   36.5970    8.8010 C.2    87  ALA87       0.2458
     81  O          3.0540   36.2810    7.6630 O.2    87  ALA87      -0.2730
     82  CB         4.9980   35.6750    9.6170 C.3    87  ALA87       0.0333
     83  N          1.8890   37.5120    9.1070 N.am   88  PRO88      -0.2716
     84  CA         0.9710   38.1760    8.1880 C.3    88  PRO88       0.1536
     85  C          1.4930   38.5720    6.8210 C.2    88  PRO88       0.2598
     86  O          0.7990   38.4140    5.8300 O.2    88  PRO88      -0.2715
     87  CB         0.6010   39.4320    8.9690 C.3    88  PRO88       0.0310
     88  CG         0.5420   38.9520   10.3790 C.3    88  PRO88       0.0237
     89  CD         1.4860   37.7730   10.4980 C.3    88  PRO88       0.0939
     90  N          2.7030   39.0900    6.7800 N.am   89  LEU89      -0.1964
     91  CA         3.2100   39.7790    5.5710 C.3    89  LEU89       0.1728
     92  C          4.1410   38.9170    4.7330 C.2    89  LEU89       0.2617
     93  O          4.8300   39.3930    3.8470 O.2    89  LEU89      -0.2715
     94  CB         3.8960   41.0980    5.9390 C.3    89  LEU89       0.0311
     95  CG         2.9310   42.1160    6.5550 C.3    89  LEU89       0.0022
     96  CD1        3.6670   43.3110    7.0750 C.3    89  LEU89       0.0001
     97  CD2        1.9110   42.5430    5.5410 C.3    89  LEU89       0.0001
     98  N          4.1410   37.6330    5.0330 N.am   90  GLY90      -0.1940
     99  CA         4.8540   36.6440    4.2260 C.3    90  GLY90       0.2014
    100  C          6.3550   36.7040    4.3260 C.2    90  GLY90       0.2639
    101  O          6.9100   37.2720    5.2660 O.2    90  GLY90      -0.2714
    102  N          6.9860   36.1090    3.3190 N.am   91  THR91      -0.1950
    103  CA         8.4500   36.0260    3.2360 C.3    91  THR91       0.1897
    104  C          9.0480   37.2450    2.5860 C.2    91  THR91       0.2313
    105  O          8.4030   37.9810    1.8290 O.2    91  THR91      -0.2863
    106  CB         8.9690   34.7910    2.4480 C.3    91  THR91       0.1794
    107  OG1        8.6930   34.9430    1.0480 O.3    91  THR91      -0.2208
    108  CG2        8.3440   33.5210    2.9590 C.3    91  THR91       0.0378
    109  N          9.4020   36.7200   -1.1830 N.3    94  ARG94      -0.1245
    110  CA         8.2580   37.2080   -1.9730 C.3    94  ARG94       0.1563
    111  C          8.3010   38.7230   -2.2070 C.2    94  ARG94       0.2260
    112  O          8.0130   39.2250   -3.2940 O.2    94  ARG94      -0.2867
    113  CB         6.9150   36.8070   -1.3490 C.3    94  ARG94       0.0307
    114  CG         5.9770   36.1510   -2.3500 C.3    94  ARG94       0.0489
    115  CD         5.6890   37.0690   -3.5440 C.3    94  ARG94       0.2205
    116  NE         5.1280   36.3680   -4.7030 N.pl3  94  ARG94      -0.0865
    117  CZ         4.9070   36.9310   -5.8870 C.cat  94  ARG94       0.5346
    118  NH1        4.3890   36.2110   -6.8640 N.pl3  94  ARG94       0.1354
    119  NH2        5.1980   38.2080   -6.0980 N.pl3  94  ARG94       0.1354
    120  N         10.6880   35.6730    7.4130 N.3   137  LEU137     -0.1245
    121  CA         9.2910   36.0550    7.4270 C.3   137  LEU137      0.1561
    122  C          9.0970   37.4890    7.9030 C.2   137  LEU137      0.2260
    123  O          9.9420   38.0780    8.5470 O.2   137  LEU137     -0.2867
    124  CB         8.4730   35.0690    8.2580 C.3   137  LEU137      0.0270
    125  CG         8.2020   33.7700    7.4860 C.3   137  LEU137      0.0019
    126  CD1        7.6070   32.6340    8.3550 C.3   137  LEU137      0.0001
    127  CD2        7.2950   34.0670    6.3040 C.3   137  LEU137      0.0001
@<TRIPOS>BOND
     1   118   117    1
     2   119   117    1
     3   117   116    2
     4   116   115    1
     5   115   114    1
     6   112   111    2
     7   114   113    1
     8   111   110    1
     9   110   113    1
    10   110   109    1
    11    10     9    1
    12   107   106    1
    13    15    14    2
    14   105   104    2
    15     9    11    1
    16     9     8    2
    17    14    13    1
    18     7     8    1
    19     7     6    1
    20   106   108    1
    21   106   103    1
    22   104   103    1
    23    12    13    1
    24     5     6    1
    25     5     2    1
    26    13    16    1
    27   103   102    1
    28     2     3    1
    29     2     1    1
    30   102   100   am
    31     3     4    2
    32    93    92    2
    33    99   100    1
    34    99    98    1
    35    23    22    2
    36   100   101    2
    37    16    17    1
    38    20    21    1
    39    19    17    1
    40    92    98   am
    41    92    91    1
    42    17    18    1
    43    22    21    1
    44    97    95    1
    45    91    94    1
    46    91    90    1
    47    21    24    1
    48    86    85    2
    49    94    95    1
    50    26    24    1
    51    24    25    1
    52   127   125    1
    53    95    96    1
    54    90    85   am
    55    85    84    1
    56   120   121    1
    57   121   122    1
    58   121   124    1
    59   125   124    1
    60   125   126    1
    61    39    40    1
    62    39    38    1
    63    81    80    2
    64   122   123    2
    65    77    76    1
    66    84    87    1
    67    84    83    1
    68    74    76   ar
    69    74    72   ar
    70    37    38    1
    71    37    36    1
    72    76    75   ar
    73    80    83   am
    74    80    79    1
    75    34    33    1
    76    34    35    2
    77    33    36    1
    78    33    32    1
    79    87    88    1
    80    83    89    1
    81    72    71   ar
    82    82    79    1
    83    79    78    1
    84    75    73   ar
    85    31    28    1
    86    78    68   am
    87    88    89    1
    88    71    73   ar
    89    71    70    1
    90    28    29    1
    91    28    27    1
    92    29    30    2
    93    68    67    1
    94    68    69    2
    95    55    54    1
    96    70    67    1
    97    67    66    1
    98    48    46    1
    99    47    46    1
   100    60    59    2
   101    46    45    1
   102    54    53    1
   103    54    56    1
   104    53    50    1
   105    66    59   am
   106    45    42    1
   107    59    58    1
   108    52    51    2
   109    50    51    1
   110    50    49    1
   111    51    57   am
   112    42    41    1
   113    42    43    1
   114    58    57    1
   115    58    61    1
   116    62    61    1
   117    62    63    1
   118    64    63   ar
   119    63    65   ar
   120    43    44    2
