@<TRIPOS>MOLECULE
tmp/2w1eA00.pdb
 175 166 0 0 0
SMALL
GASTEIGER

@<TRIPOS>ATOM
      1  N         -6.4200   28.3430    4.5710 N.3    11  ARG11      -0.1245
      2  CA        -5.7450   28.5130    3.2960 C.3    11  ARG11       0.1563
      3  C         -4.3290   27.9550    3.4090 C.2    11  ARG11       0.2260
      4  O         -3.6720   28.0750    4.4480 O.2    11  ARG11      -0.2867
      5  CB        -5.7370   29.9680    2.8070 C.3    11  ARG11       0.0307
      6  CG        -4.5630   30.8090    3.2100 C.3    11  ARG11       0.0489
      7  CD        -4.1850   31.7000    2.0440 C.3    11  ARG11       0.2205
      8  NE        -3.3240   32.8090    2.4260 N.pl3  11  ARG11      -0.0865
      9  CZ        -2.5780   33.4940    1.5690 C.cat  11  ARG11       0.5346
     10  NH1       -2.5810   33.1660    0.2760 N.pl3  11  ARG11       0.1354
     11  NH2       -1.8250   34.5030    1.9970 N.pl3  11  ARG11       0.1354
     12  N         -0.4690   27.9220    2.8790 N.3    13  LEU13      -0.1231
     13  CA         0.5290   28.9780    2.9020 C.3    13  LEU13       0.1696
     14  C          1.7310   28.6320    2.0650 C.2    13  LEU13       0.2632
     15  O          2.3540   29.5090    1.4740 O.2    13  LEU13      -0.2714
     16  CB         0.9460   29.2690    4.3410 C.3    13  LEU13       0.0284
     17  CG        -0.1540   29.9410    5.1750 C.3    13  LEU13       0.0019
     18  CD1        0.0930   29.7230    6.6610 C.3    13  LEU13       0.0001
     19  CD2       -0.2530   31.4170    4.8440 C.3    13  LEU13       0.0001
     20  N          2.0410   27.3460    2.0050 N.am   14  GLY14      -0.1718
     21  CA         3.2130   26.8960    1.2550 C.2    14  GLY14       0.1480
     22  C          3.3710   25.4270    0.9430 C.2    14  GLY14       0.2820
     23  O          2.7790   24.5490    1.5770 O.2    14  GLY14      -0.2669
     24  N          4.2210   25.2040   -0.0550 N.am   15  LYS15      -0.1943
     25  CA         4.6620   23.8660   -0.4870 C.3    15  LYS15       0.1599
     26  C          6.0110   23.5340    0.1480 C.2    15  LYS15       0.2287
     27  O          6.3120   23.9660    1.2620 O.2    15  LYS15      -0.2864
     28  CB         4.7580   23.7940   -2.0130 C.3    15  LYS15       0.0298
     29  CG         3.5360   24.3540   -2.7280 C.3    15  LYS15       0.0038
     30  CD         3.8610   24.8550   -4.1490 C.3    15  LYS15       0.0206
     31  CE         4.8650   26.0240   -4.1570 C.3    15  LYS15       0.1093
     32  NZ         4.7190   26.9400   -2.9810 N.3    15  LYS15      -0.1314
     33  N          2.5630   24.0220    4.5270 N.3    21  VAL21      -0.1245
     34  CA         2.1500   24.8190    5.6690 C.3    21  VAL21       0.1561
     35  C          0.7960   25.4240    5.3580 C.2    21  VAL21       0.2260
     36  O          0.5110   25.8510    4.2320 O.2    21  VAL21      -0.2867
     37  CB         3.1330   25.9520    6.0530 C.3    21  VAL21       0.0252
     38  CG1        2.7480   26.5180    7.4150 C.3    21  VAL21       0.0019
     39  CG2        4.5660   25.4600    6.0920 C.3    21  VAL21       0.0019
     40  N          0.2390   29.0970   11.9760 N.3    34  ALA34      -0.1245
     41  CA         0.5680   28.2970   10.8130 C.3    34  ALA34       0.1562
     42  C          0.8870   26.8990   11.2490 C.2    34  ALA34       0.2260
     43  O          1.6020   26.6600   12.2190 O.2    34  ALA34      -0.2867
     44  CB         1.7290   28.8960   10.0620 C.3    34  ALA34       0.0290
     45  N          2.6720   23.6600    9.8570 N.3    36  LYS36      -0.1245
     46  CA         3.5970   23.0020    8.9370 C.3    36  LYS36       0.1561
     47  C          3.2480   21.5290    9.0160 C.2    36  LYS36       0.2260
     48  O          3.1590   20.9630   10.0980 O.2    36  LYS36      -0.2867
     49  CB         5.0540   23.2430    9.3730 C.3    36  LYS36       0.0271
     50  CG         6.0880   23.2520    8.2530 C.3    36  LYS36       0.0035
     51  CD         7.3090   24.1340    8.6050 C.3    36  LYS36       0.0206
     52  CE         8.0070   24.6960    7.3390 C.3    36  LYS36       0.1093
     53  NZ         9.1240   25.6690    7.6120 N.3    36  LYS36      -0.1314
     54  N         10.7590   33.2920   14.4630 N.3    68  LEU68      -0.1245
     55  CA         9.3910   32.7830   14.3590 C.3    68  LEU68       0.1561
     56  C          9.1550   31.9010   15.5740 C.2    68  LEU68       0.2260
     57  O          9.8960   30.9470   15.8170 O.2    68  LEU68      -0.2867
     58  CB         9.1490   32.0110   13.0470 C.3    68  LEU68       0.0270
     59  CG         7.6960   32.0070   12.5790 C.3    68  LEU68       0.0019
     60  CD1        7.3200   33.3450   11.9540 C.3    68  LEU68       0.0001
     61  CD2        7.4900   30.8840   11.6210 C.3    68  LEU68       0.0001
     62  N          3.2240   26.7560   14.2100 N.3    84  LEU84      -0.1231
     63  CA         4.0700   27.9300   14.0920 C.3    84  LEU84       0.1693
     64  C          3.3250   29.2110   14.2910 C.2    84  LEU84       0.2592
     65  O          2.1550   29.3460   13.9610 O.2    84  LEU84      -0.2718
     66  CB         4.7210   27.9580   12.7120 C.3    84  LEU84       0.0284
     67  CG         5.7790   26.8690   12.5100 C.3    84  LEU84       0.0019
     68  CD1        6.2820   26.8860   11.0890 C.3    84  LEU84       0.0001
     69  CD2        6.9260   27.0480   13.4940 C.3    84  LEU84       0.0001
     70  N          4.0360   30.1680   14.8390 N.am   85  GLU85      -0.1966
     71  CA         3.6050   31.5510   14.7250 C.3    85  GLU85       0.1733
     72  C          3.3490   31.8130   13.2510 C.2    85  GLU85       0.2616
     73  O          4.0880   31.3540   12.3980 O.2    85  GLU85      -0.2715
     74  CB         4.6690   32.5210   15.2540 C.3    85  GLU85       0.0429
     75  CG         4.5330   33.9280   14.7250 C.3    85  GLU85       0.1163
     76  CD         5.5220   34.8850   15.3550 C.2    85  GLU85       0.3649
     77  OE1        5.3700   36.0930   15.0870 O.co2  85  GLU85      -0.2457
     78  OE2        6.4450   34.4510   16.1070 O.co2  85  GLU85      -0.2457
     79  N          2.2860   32.5400   12.9680 N.am   86  TYR86      -0.1960
     80  CA         1.9200   32.8870   11.5940 C.3    86  TYR86       0.1771
     81  C          2.3360   34.3220   11.3260 C.2    86  TYR86       0.2619
     82  O          2.1810   35.1850   12.1700 O.2    86  TYR86      -0.2715
     83  CB         0.4200   32.6580   11.3470 C.3    86  TYR86       0.0574
     84  CG        -0.1910   33.5640   10.3030 C.ar   86  TYR86      -0.0198
     85  CD1        0.0140   33.3560    8.9440 C.ar   86  TYR86      -0.0009
     86  CD2       -1.0000   34.6130   10.6790 C.ar   86  TYR86      -0.0009
     87  CE1       -0.5650   34.1890    8.0020 C.ar   86  TYR86       0.0417
     88  CE2       -1.5800   35.4420    9.7510 C.ar   86  TYR86       0.0417
     89  CZ        -1.3590   35.2380    8.4250 C.ar   86  TYR86       0.1957
     90  OH        -1.9610   36.1040    7.5490 O.3    86  TYR86      -0.2866
     91  N          2.9090   34.5400   10.1490 N.am   87  ALA87      -0.1964
     92  CA         3.5300   35.8190    9.8020 C.3    87  ALA87       0.1713
     93  C          2.8140   36.4600    8.6400 C.2    87  ALA87       0.2458
     94  O          3.0710   36.1200    7.5130 O.2    87  ALA87      -0.2730
     95  CB         4.9860   35.6210    9.4610 C.3    87  ALA87       0.0333
     96  N          1.9140   37.3990    8.9130 N.am   88  PRO88      -0.2716
     97  CA         0.9980   38.0030    7.9630 C.3    88  PRO88       0.1536
     98  C          1.5480   38.2830    6.5840 C.2    88  PRO88       0.2598
     99  O          0.9600   37.8690    5.5970 O.2    88  PRO88      -0.2715
    100  CB         0.6820   39.3320    8.6230 C.3    88  PRO88       0.0310
    101  CG         0.7050   39.0200   10.0620 C.3    88  PRO88       0.0237
    102  CD         1.6750   37.9030   10.2700 C.3    88  PRO88       0.0939
    103  N          2.6440   39.0230    6.5400 N.am   89  LEU89      -0.1964
    104  CA         3.1440   39.6370    5.2770 C.3    89  LEU89       0.1728
    105  C          4.1220   38.7860    4.4680 C.2    89  LEU89       0.2617
    106  O          4.8590   39.2770    3.6270 O.2    89  LEU89      -0.2715
    107  CB         3.7710   41.0070    5.5560 C.3    89  LEU89       0.0311
    108  CG         2.8530   41.9480    6.3350 C.3    89  LEU89       0.0022
    109  CD1        3.5940   43.1770    6.7740 C.3    89  LEU89       0.0001
    110  CD2        1.6500   42.3220    5.4970 C.3    89  LEU89       0.0001
    111  N          4.1030   37.4980    4.7340 N.am   90  GLY90      -0.1940
    112  CA         4.8600   36.5380    3.9300 C.3    90  GLY90       0.2014
    113  C          6.3460   36.7360    3.9690 C.2    90  GLY90       0.2639
    114  O          6.8820   37.2660    4.9380 O.2    90  GLY90      -0.2714
    115  N          6.9930   36.3170    2.8880 N.am   91  THR91      -0.1950
    116  CA         8.4640   36.2730    2.8270 C.3    91  THR91       0.1897
    117  C          9.1060   37.5410    2.2800 C.2    91  THR91       0.2313
    118  O          8.5090   38.3140    1.5130 O.2    91  THR91      -0.2863
    119  CB         9.0080   35.0560    2.0320 C.3    91  THR91       0.1794
    120  OG1        8.6500   35.1670    0.6470 O.3    91  THR91      -0.2208
    121  CG2        8.4840   33.7700    2.6020 C.3    91  THR91       0.0378
    122  N         11.5680   37.2260    0.5750 N.3    93  TYR93      -0.1227
    123  CA        11.8380   36.7560   -0.7650 C.3    93  TYR93       0.1736
    124  C         10.8550   37.3930   -1.7290 C.2    93  TYR93       0.2595
    125  O         11.2380   38.0820   -2.6620 O.2    93  TYR93      -0.2718
    126  CB        11.7190   35.2430   -0.8180 C.3    93  TYR93       0.0548
    127  CG        11.9400   34.6480   -2.1800 C.ar   93  TYR93      -0.0200
    128  CD1       13.2160   34.3770   -2.6380 C.ar   93  TYR93      -0.0009
    129  CD2       10.8740   34.3300   -2.9990 C.ar   93  TYR93      -0.0009
    130  CE1       13.4240   33.8140   -3.8720 C.ar   93  TYR93       0.0417
    131  CE2       11.0730   33.7650   -4.2370 C.ar   93  TYR93       0.0417
    132  CZ        12.3500   33.5120   -4.6680 C.ar   93  TYR93       0.1957
    133  OH        12.5520   32.9520   -5.9060 O.3    93  TYR93      -0.2866
    134  N          9.5740   37.1780   -1.4680 N.am   94  ARG94      -0.1980
    135  CA         8.5120   37.6200   -2.4050 C.3    94  ARG94       0.1597
    136  C          8.4670   39.1290   -2.5630 C.2    94  ARG94       0.2287
    137  O          8.2260   39.6720   -3.6430 O.2    94  ARG94      -0.2864
    138  CB         7.1380   37.1390   -1.9730 C.3    94  ARG94       0.0334
    139  CG         6.4050   36.3970   -3.0610 C.3    94  ARG94       0.0492
    140  CD         6.0350   37.2600   -4.2330 C.3    94  ARG94       0.2205
    141  NE         4.6960   36.9300   -4.7220 N.pl3  94  ARG94      -0.0865
    142  CZ         4.2230   37.2560   -5.9200 C.cat  94  ARG94       0.5346
    143  NH1        2.9770   36.9070   -6.2470 N.pl3  94  ARG94       0.1354
    144  NH2        4.9910   37.9150   -6.7890 N.pl3  94  ARG94       0.1354
    145  N          8.9220   41.0580   -5.9640 N.3    98  LYS98      -0.1245
    146  CA         7.9490   42.1250   -6.2000 C.3    98  LYS98       0.1561
    147  C          8.6700   43.4520   -6.4330 C.2    98  LYS98       0.2260
    148  O          8.5010   44.0850   -7.4720 O.2    98  LYS98      -0.2867
    149  CB         6.9040   42.2020   -5.0790 C.3    98  LYS98       0.0271
    150  CG         5.8640   41.0800   -5.1980 C.3    98  LYS98       0.0035
    151  CD         5.0360   40.8830   -3.9420 C.3    98  LYS98       0.0206
    152  CE         4.0280   41.9890   -3.7650 C.3    98  LYS98       0.1093
    153  NZ         3.4840   42.0170   -2.3630 N.3    98  LYS98      -0.1314
    154  N         14.0840   33.3790    1.1930 N.3   134  GLU134     -0.1245
    155  CA        13.0110   32.3810    1.2840 C.3   134  GLU134      0.1567
    156  C         12.6750   32.0690    2.7450 C.2   134  GLU134      0.2260
    157  O         11.5360   31.7850    3.0750 O.2   134  GLU134     -0.2867
    158  CB        13.3790   31.0700    0.5740 C.3   134  GLU134      0.0388
    159  CG        13.8710   31.2050   -0.8690 C.3   134  GLU134      0.1160
    160  CD        14.0650   29.8570   -1.5540 C.2   134  GLU134      0.3649
    161  OE1       13.7790   28.8110   -0.9190 O.co2 134  GLU134     -0.2457
    162  OE2       14.5090   29.8500   -2.7290 O.co2 134  GLU134     -0.2457
    163  N         10.5040   35.5040    7.0200 N.3   137  LEU137     -0.1245
    164  CA         9.1150   35.9240    7.0680 C.3   137  LEU137      0.1561
    165  C          8.9810   37.3490    7.5990 C.2   137  LEU137      0.2260
    166  O          9.9020   37.9390    8.1460 O.2   137  LEU137     -0.2867
    167  CB         8.2720   34.9400    7.8860 C.3   137  LEU137      0.0270
    168  CG         8.0880   33.5870    7.1870 C.3   137  LEU137      0.0019
    169  CD1        7.5230   32.5140    8.0990 C.3   137  LEU137      0.0001
    170  CD2        7.1950   33.7580    5.9640 C.3   137  LEU137      0.0001
    171  N         12.5520   32.1300   10.1270 N.3   147  ALA147     -0.1245
    172  CA        11.9640   30.7980   10.1710 C.3   147  ALA147      0.1562
    173  C         13.0380   29.7880   10.0770 C.2   147  ALA147      0.2260
    174  O         14.2130   30.1010    9.8980 O.2   147  ALA147     -0.2867
    175  CB        10.9970   30.5780    9.0340 C.3   147  ALA147      0.0290
@<TRIPOS>BOND
     1   148   147    2
     2   144   142    1
     3   147   146    1
     4   143   142    1
     5   146   145    1
     6   146   149    1
     7   142   141    2
     8   133   132    1
     9   150   149    1
    10   150   151    1
    11   141   140    1
    12   132   131   ar
    13   132   130   ar
    14   131   129   ar
    15   140   139    1
    16    31    30    1
    17    31    32    1
    18    30    29    1
    19   151   152    1
    20   130   128   ar
    21   152   153    1
    22   137   136    2
    23   139   138    1
    24   129   127   ar
    25   162   160   ar
    26    29    28    1
    27   125   124    2
    28   128   127   ar
    29   136   135    1
    30   135   138    1
    31   135   134    1
    32   127   126    1
    33    28    25    1
    34   124   134   am
    35   124   123    1
    36   160   161   ar
    37   160   159    1
    38   159   158    1
    39   126   123    1
    40   123   122    1
    41    25    24    1
    42    25    26    1
    43    24    22   am
    44    26    27    2
    45    10     9    1
    46   158   155    1
    47   120   119    1
    48    22    21    1
    49    22    23    2
    50   154   155    1
    51    21    20    2
    52   155   156    1
    53    15    14    2
    54   118   117    2
    55     9    11    1
    56     9     8    2
    57    20    14    1
    58   119   121    1
    59   119   116    1
    60     7     8    1
    61     7     6    1
    62    14    13    1
    63   117   116    1
    64   156   157    2
    65     5     6    1
    66     5     2    1
    67   116   115    1
    68    12    13    1
    69   115   113   am
    70    13    16    1
    71     2     3    1
    72     2     1    1
    73     3     4    2
    74   106   105    2
    75   112   113    1
    76   112   111    1
    77   113   114    2
    78    36    35    2
    79    16    17    1
    80   105   111   am
    81   105   104    1
    82    33    34    1
    83    19    17    1
    84    17    18    1
    85   104   107    1
    86   104   103    1
    87    35    34    1
    88   110   108    1
    89   107   108    1
    90    99    98    2
    91    34    37    1
    92   170   168    1
    93    37    39    1
    94    37    38    1
    95   108   109    1
    96   103    98   am
    97    98    97    1
    98   163   164    1
    99   164   165    1
   100   164   167    1
   101   168   167    1
   102   168   169    1
   103    52    53    1
   104    52    51    1
   105    94    93    2
   106    90    89    1
   107   165   166    2
   108    97   100    1
   109    97    96    1
   110    87    89   ar
   111    87    85   ar
   112    50    51    1
   113    50    49    1
   114    89    88   ar
   115   100   101    1
   116    93    96   am
   117    93    92    1
   118    96   102    1
   119    46    47    1
   120    46    49    1
   121    46    45    1
   122    85    84   ar
   123    47    48    2
   124   175   172    1
   125    95    92    1
   126    88    86   ar
   127    92    91    1
   128   174   173    2
   129   101   102    1
   130    44    41    1
   131   173   172    1
   132   171   172    1
   133    91    81   am
   134    84    86   ar
   135    84    83    1
   136    41    42    1
   137    41    40    1
   138    68    67    1
   139    42    43    2
   140    81    80    1
   141    81    82    2
   142    83    80    1
   143    80    79    1
   144    61    59    1
   145    60    59    1
   146    73    72    2
   147    67    66    1
   148    67    69    1
   149    59    58    1
   150    66    63    1
   151    79    72   am
   152    58    55    1
   153    72    71    1
   154    65    64    2
   155    63    62    1
   156    63    64    1
   157    64    70   am
   158    55    54    1
   159    55    56    1
   160    71    70    1
   161    71    74    1
   162    75    74    1
   163    75    76    1
   164    77    76   ar
   165    76    78   ar
   166    56    57    2
