@<TRIPOS>MOLECULE
tmp/2w1fA00.pdb
 158 149 0 0 0
SMALL
GASTEIGER

@<TRIPOS>ATOM
      1  N         -6.1640   28.2960    4.6180 N.3    11  ARG11      -0.1245
      2  CA        -5.5220   28.4290    3.3200 C.3    11  ARG11       0.1563
      3  C         -4.1140   27.8280    3.3430 C.2    11  ARG11       0.2260
      4  O         -3.4020   27.9400    4.3410 O.2    11  ARG11      -0.2867
      5  CB        -5.4660   29.8890    2.8210 C.3    11  ARG11       0.0307
      6  CG        -4.2670   30.6740    3.2510 C.3    11  ARG11       0.0489
      7  CD        -3.8020   31.6230    2.1560 C.3    11  ARG11       0.2205
      8  NE        -3.0290   32.7260    2.7320 N.pl3  11  ARG11      -0.0865
      9  CZ        -2.1450   33.4760    2.0830 C.cat  11  ARG11       0.5346
     10  NH1       -1.8800   33.2690    0.8050 N.pl3  11  ARG11       0.1354
     11  NH2       -1.5280   34.4510    2.7290 N.pl3  11  ARG11       0.1354
     12  N         -0.2910   27.8930    2.7080 N.3    13  LEU13      -0.1231
     13  CA         0.7210   28.9640    2.8020 C.3    13  LEU13       0.1696
     14  C          2.0330   28.6260    2.0970 C.2    13  LEU13       0.2632
     15  O          2.7960   29.5150    1.7330 O.2    13  LEU13      -0.2714
     16  CB         1.0360   29.3080    4.2760 C.3    13  LEU13       0.0284
     17  CG        -0.0480   29.8890    5.2050 C.3    13  LEU13       0.0019
     18  CD1        0.4840   30.1560    6.6180 C.3    13  LEU13       0.0001
     19  CD2       -0.6360   31.1610    4.6160 C.3    13  LEU13       0.0001
     20  N          2.3170   27.3480    1.9240 N.am   14  GLY14      -0.1718
     21  CA         3.5980   26.9610    1.3100 C.2    14  GLY14       0.1480
     22  C          3.8510   25.4860    1.0750 C.2    14  GLY14       0.2820
     23  O          3.1220   24.6180    1.5700 O.2    14  GLY14      -0.2669
     24  N          4.9040   25.2450    0.2910 N.am   15  LYS15      -0.1929
     25  CA         5.4360   23.8980   -0.0340 C.3    15  LYS15       0.1731
     26  C          6.9090   23.7600    0.3660 C.2    15  LYS15       0.2616
     27  O          7.5430   24.7200    0.8010 O.2    15  LYS15      -0.2715
     28  CB         5.2730   23.6100   -1.5320 C.3    15  LYS15       0.0312
     29  CG         3.8340   23.3210   -1.9490 C.3    15  LYS15       0.0038
     30  CD         3.5110   23.8520   -3.3440 C.3    15  LYS15       0.0206
     31  CE         3.3650   25.3780   -3.3600 C.3    15  LYS15       0.1093
     32  NZ         2.4090   25.8980   -2.3270 N.3    15  LYS15      -0.1314
     33  N          7.4420   22.5540    0.2020 N.am   16  GLY16      -0.1955
     34  CA         8.8290   22.2300    0.6200 C.3    16  GLY16       0.1869
     35  C          9.0640   20.7560    0.9070 C.2    16  GLY16       0.2309
     36  O          8.7880   20.2710    2.0020 O.2    16  GLY16      -0.2863
     37  N          2.7510   23.8890    4.4400 N.3    21  VAL21      -0.1245
     38  CA         2.2980   24.6690    5.6100 C.3    21  VAL21       0.1561
     39  C          0.9160   25.2850    5.3500 C.2    21  VAL21       0.2260
     40  O          0.6730   25.9390    4.3360 O.2    21  VAL21      -0.2867
     41  CB         3.3180   25.7770    6.0320 C.3    21  VAL21       0.0252
     42  CG1        2.7990   26.5430    7.2400 C.3    21  VAL21       0.0019
     43  CG2        4.6720   25.1670    6.3630 C.3    21  VAL21       0.0019
     44  N          0.3000   28.8210   12.0510 N.3    34  ALA34      -0.1245
     45  CA         0.6550   28.0990   10.8290 C.3    34  ALA34       0.1562
     46  C          1.0310   26.6860   11.1660 C.2    34  ALA34       0.2260
     47  O          1.9960   26.4510   11.8700 O.2    34  ALA34      -0.2867
     48  CB         1.8040   28.7740   10.1440 C.3    34  ALA34       0.0290
     49  N          2.5300   23.3040    9.9290 N.3    36  LYS36      -0.1245
     50  CA         3.4650   22.7640    8.9490 C.3    36  LYS36       0.1561
     51  C          3.3480   21.2520    8.9870 C.2    36  LYS36       0.2260
     52  O          3.8460   20.6240    9.9130 O.2    36  LYS36      -0.2867
     53  CB         4.8940   23.2190    9.3050 C.3    36  LYS36       0.0271
     54  CG         6.0080   22.6900    8.4080 C.3    36  LYS36       0.0035
     55  CD         7.3030   23.4950    8.5890 C.3    36  LYS36       0.0206
     56  CE         8.1360   23.5300    7.2850 C.3    36  LYS36       0.1093
     57  NZ         9.1190   24.6590    7.2280 N.3    36  LYS36      -0.1314
     58  N         10.8920   33.2250   14.5900 N.3    68  LEU68      -0.1245
     59  CA         9.5610   32.6140   14.4980 C.3    68  LEU68       0.1561
     60  C          9.3880   31.6390   15.6410 C.2    68  LEU68       0.2260
     61  O         10.1620   30.6930   15.7970 O.2    68  LEU68      -0.2867
     62  CB         9.3110   31.9140   13.1450 C.3    68  LEU68       0.0270
     63  CG         7.8310   31.6930   12.8150 C.3    68  LEU68       0.0019
     64  CD1        7.1390   33.0070   12.4660 C.3    68  LEU68       0.0001
     65  CD2        7.6750   30.7120   11.6930 C.3    68  LEU68       0.0001
     66  N          3.3370   26.3120   14.3370 N.3    84  LEU84      -0.1231
     67  CA         4.2010   27.4860   14.2140 C.3    84  LEU84       0.1693
     68  C          3.4660   28.7860   14.3480 C.2    84  LEU84       0.2592
     69  O          2.3470   28.9220   13.8850 O.2    84  LEU84      -0.2718
     70  CB         4.8680   27.4810   12.8400 C.3    84  LEU84       0.0284
     71  CG         5.9490   26.4300   12.5840 C.3    84  LEU84       0.0019
     72  CD1        6.1660   26.3410   11.0960 C.3    84  LEU84       0.0001
     73  CD2        7.2440   26.7880   13.3260 C.3    84  LEU84       0.0001
     74  N          4.1180   29.7650   14.9470 N.am   85  GLU85      -0.1966
     75  CA         3.6140   31.1470   14.8630 C.3    85  GLU85       0.1733
     76  C          3.3840   31.5090   13.4010 C.2    85  GLU85       0.2616
     77  O          4.0950   31.0420   12.5190 O.2    85  GLU85      -0.2715
     78  CB         4.5860   32.1650   15.4810 C.3    85  GLU85       0.0429
     79  CG         4.3740   33.5860   14.9610 C.3    85  GLU85       0.1163
     80  CD         5.3440   34.5710   15.5580 C.2    85  GLU85       0.3649
     81  OE1        5.1640   35.7840   15.3220 O.co2  85  GLU85      -0.2457
     82  OE2        6.2970   34.1420   16.2470 O.co2  85  GLU85      -0.2457
     83  N          2.3850   32.3520   13.1730 N.am   86  TYR86      -0.1960
     84  CA         1.9530   32.7620   11.8270 C.3    86  TYR86       0.1771
     85  C          2.4020   34.1890   11.5890 C.2    86  TYR86       0.2619
     86  O          2.2830   35.0400   12.4640 O.2    86  TYR86      -0.2715
     87  CB         0.4320   32.6150   11.6810 C.3    86  TYR86       0.0574
     88  CG        -0.1860   33.4630   10.5890 C.ar   86  TYR86      -0.0198
     89  CD1        0.0070   33.1640    9.2450 C.ar   86  TYR86      -0.0009
     90  CD2       -0.9830   34.5540   10.9030 C.ar   86  TYR86      -0.0009
     91  CE1       -0.5590   33.9310    8.2540 C.ar   86  TYR86       0.0417
     92  CE2       -1.5550   35.3330    9.9110 C.ar   86  TYR86       0.0417
     93  CZ        -1.3360   35.0160    8.5930 C.ar   86  TYR86       0.1957
     94  OH        -1.9130   35.7950    7.6220 O.3    86  TYR86      -0.2866
     95  N          2.9590   34.4290   10.4070 N.am   87  ALA87      -0.1964
     96  CA         3.6270   35.7010   10.0940 C.3    87  ALA87       0.1713
     97  C          2.9130   36.3940    8.9460 C.2    87  ALA87       0.2458
     98  O          3.2190   36.1540    7.8000 O.2    87  ALA87      -0.2730
     99  CB         5.0890   35.4680    9.7570 C.3    87  ALA87       0.0333
    100  N          1.9500   37.2650    9.2610 N.am   88  PRO88      -0.2716
    101  CA         0.9600   37.8330    8.3520 C.3    88  PRO88       0.1536
    102  C          1.4360   38.2360    6.9780 C.2    88  PRO88       0.2598
    103  O          0.6890   38.1160    6.0110 O.2    88  PRO88      -0.2715
    104  CB         0.5190   39.0810    9.0950 C.3    88  PRO88       0.0310
    105  CG         0.5750   38.6940   10.4950 C.3    88  PRO88       0.0237
    106  CD         1.7220   37.7340   10.6350 C.3    88  PRO88       0.0939
    107  N          2.6610   38.7320    6.9050 N.am   89  LEU89      -0.1964
    108  CA         3.1330   39.4400    5.7030 C.3    89  LEU89       0.1728
    109  C          4.0770   38.6080    4.8430 C.2    89  LEU89       0.2617
    110  O          4.7700   39.1220    3.9760 O.2    89  LEU89      -0.2715
    111  CB         3.7690   40.7900    6.0740 C.3    89  LEU89       0.0311
    112  CG         2.8060   41.9090    6.5000 C.3    89  LEU89       0.0022
    113  CD1        3.5360   43.2230    6.6600 C.3    89  LEU89       0.0001
    114  CD2        1.6720   42.0850    5.4850 C.3    89  LEU89       0.0001
    115  N          4.0750   37.3110    5.0840 N.am   90  GLY90      -0.1940
    116  CA         4.7930   36.3530    4.2300 C.3    90  GLY90       0.2014
    117  C          6.2930   36.4710    4.2720 C.2    90  GLY90       0.2639
    118  O          6.8400   37.0930    5.1670 O.2    90  GLY90      -0.2714
    119  N          6.9260   35.8780    3.2650 N.am   91  THR91      -0.1950
    120  CA         8.3850   35.7900    3.1720 C.3    91  THR91       0.1897
    121  C          8.9940   37.0300    2.5210 C.2    91  THR91       0.2313
    122  O          8.3820   37.6810    1.6780 O.2    91  THR91      -0.2863
    123  CB         8.8810   34.5300    2.3970 C.3    91  THR91       0.1794
    124  OG1        8.6350   34.6780    0.9970 O.3    91  THR91      -0.2208
    125  CG2        8.2260   33.2550    2.9000 C.3    91  THR91       0.0378
    126  N          9.3790   36.6820   -1.2170 N.3    94  ARG94      -0.1245
    127  CA         8.2620   37.1820   -2.0250 C.3    94  ARG94       0.1563
    128  C          8.3270   38.6890   -2.2610 C.2    94  ARG94       0.2260
    129  O          8.0860   39.1850   -3.3610 O.2    94  ARG94      -0.2867
    130  CB         6.9030   36.8130   -1.4010 C.3    94  ARG94       0.0307
    131  CG         5.9770   36.0060   -2.3150 C.3    94  ARG94       0.0489
    132  CD         6.2720   36.2310   -3.8000 C.3    94  ARG94       0.2205
    133  NE         5.0600   36.2400   -4.6100 N.pl3  94  ARG94      -0.0865
    134  CZ         5.0020   36.6620   -5.8670 C.cat  94  ARG94       0.5346
    135  NH1        3.8480   36.6320   -6.5080 N.pl3  94  ARG94       0.1354
    136  NH2        6.0860   37.1130   -6.4820 N.pl3  94  ARG94       0.1354
    137  N         14.1000   32.9960    1.5730 N.3   134  GLU134     -0.1245
    138  CA        13.0130   32.0120    1.6580 C.3   134  GLU134      0.1567
    139  C         12.7190   31.6640    3.1250 C.2   134  GLU134      0.2260
    140  O         11.6130   31.2730    3.4730 O.2   134  GLU134     -0.2867
    141  CB        13.3440   30.7250    0.8740 C.3   134  GLU134      0.0388
    142  CG        14.2600   30.9220   -0.3600 C.3   134  GLU134      0.1160
    143  CD        14.2170   29.7560   -1.3540 C.2   134  GLU134      0.3649
    144  OE1       13.4800   28.7750   -1.1030 O.co2 134  GLU134     -0.2457
    145  OE2       14.9290   29.8240   -2.3880 O.co2 134  GLU134     -0.2457
    146  N         10.5630   35.4310    7.3400 N.3   137  LEU137     -0.1245
    147  CA         9.1630   35.8070    7.3250 C.3   137  LEU137      0.1561
    148  C          8.9740   37.2230    7.8300 C.2   137  LEU137      0.2260
    149  O          9.9010   37.8490    8.3140 O.2   137  LEU137     -0.2867
    150  CB         8.3330   34.8340    8.1510 C.3   137  LEU137      0.0270
    151  CG         8.1400   33.4980    7.4370 C.3   137  LEU137      0.0019
    152  CD1        7.8210   32.3850    8.4100 C.3   137  LEU137      0.0001
    153  CD2        7.0470   33.6400    6.3760 C.3   137  LEU137      0.0001
    154  N         12.7470   32.1050   10.2860 N.3   147  ALA147     -0.1245
    155  CA        12.1510   30.7830   10.4110 C.3   147  ALA147      0.1562
    156  C         13.1840   29.7180   10.1850 C.2   147  ALA147      0.2260
    157  O         14.3250   29.9840    9.8170 O.2   147  ALA147     -0.2867
    158  CB        11.0110   30.6080    9.4260 C.3   147  ALA147      0.0290
@<TRIPOS>BOND
     1   135   134    1
     2   136   134    1
     3   134   133    2
     4   133   132    1
     5   132   131    1
     6   129   128    2
     7    31    30    1
     8    31    32    1
     9    30    29    1
    10   145   143   ar
    11   131   130    1
    12   128   127    1
    13   127   130    1
    14   127   126    1
    15    29    28    1
    16    28    25    1
    17   143   144   ar
    18   143   142    1
    19   142   141    1
    20    25    24    1
    21    25    26    1
    22    33    26   am
    23    33    34    1
    24    24    22   am
    25    26    27    2
    26    34    35    1
    27    10     9    1
    28   141   138    1
    29    35    36    2
    30   124   123    1
    31    22    21    1
    32    22    23    2
    33    21    20    2
    34   137   138    1
    35   138   139    1
    36   122   121    2
    37    15    14    2
    38    20    14    1
    39     9    11    1
    40     9     8    2
    41    14    13    1
    42     7     8    1
    43     7     6    1
    44   123   125    1
    45   123   120    1
    46   121   120    1
    47    12    13    1
    48    13    16    1
    49     5     6    1
    50     5     2    1
    51   139   140    2
    52   120   119    1
    53   119   117   am
    54     2     3    1
    55     2     1    1
    56     3     4    2
    57   110   109    2
    58   116   117    1
    59   116   115    1
    60   117   118    2
    61    16    17    1
    62    40    39    2
    63    37    38    1
    64    19    17    1
    65   109   115   am
    66   109   108    1
    67    17    18    1
    68    39    38    1
    69   114   112    1
    70    38    41    1
    71   108   111    1
    72   108   107    1
    73   103   102    2
    74    41    43    1
    75    41    42    1
    76   111   112    1
    77   153   151    1
    78   112   113    1
    79   107   102   am
    80   102   101    1
    81    57    56    1
    82    56    55    1
    83   147   146    1
    84   147   148    1
    85   147   150    1
    86   151   150    1
    87   151   152    1
    88    94    93    1
    89    98    97    2
    90   148   149    2
    91    91    93   ar
    92    91    89   ar
    93   101   104    1
    94   101   100    1
    95    54    55    1
    96    54    53    1
    97    93    92   ar
    98    97   100   am
    99    97    96    1
   100    50    51    1
   101    50    53    1
   102    50    49    1
   103    51    52    2
   104   104   105    1
   105    89    88   ar
   106   100   106    1
   107   158   155    1
   108    99    96    1
   109   157   156    2
   110    92    90   ar
   111    96    95    1
   112    48    45    1
   113   156   155    1
   114   154   155    1
   115    95    85   am
   116   105   106    1
   117    88    90   ar
   118    88    87    1
   119    45    46    1
   120    45    44    1
   121    72    71    1
   122    46    47    2
   123    85    84    1
   124    85    86    2
   125    87    84    1
   126    65    63    1
   127    84    83    1
   128    64    63    1
   129    77    76    2
   130    71    70    1
   131    71    73    1
   132    63    62    1
   133    70    67    1
   134    62    59    1
   135    83    76   am
   136    76    75    1
   137    69    68    2
   138    67    66    1
   139    67    68    1
   140    68    74   am
   141    59    58    1
   142    59    60    1
   143    75    74    1
   144    75    78    1
   145    79    78    1
   146    79    80    1
   147    81    80   ar
   148    80    82   ar
   149    60    61    2
