@<TRIPOS>MOLECULE
tmp/2w1gA00.pdb
 143 135 0 0 0
SMALL
GASTEIGER

@<TRIPOS>ATOM
      1  N         -6.3240   28.2910    4.4210 N.3    11  ARG11      -0.1245
      2  CA        -5.7080   28.2610    3.1040 C.3    11  ARG11       0.1563
      3  C         -4.2430   27.8590    3.1910 C.2    11  ARG11       0.2260
      4  O         -3.5630   28.2190    4.1390 O.2    11  ARG11      -0.2867
      5  CB        -5.8450   29.5890    2.3710 C.3    11  ARG11       0.0307
      6  CG        -5.0460   30.6840    2.9360 C.3    11  ARG11       0.0489
      7  CD        -4.6110   31.6280    1.8830 C.3    11  ARG11       0.2205
      8  NE        -3.7190   32.5490    2.5330 N.pl3  11  ARG11      -0.0865
      9  CZ        -2.7530   33.2290    1.9490 C.cat  11  ARG11       0.5346
     10  NH1       -2.5140   33.1440    0.6460 N.pl3  11  ARG11       0.1354
     11  NH2       -2.0310   34.0040    2.7140 N.pl3  11  ARG11       0.1354
     12  N         -0.4850   28.1250    2.7200 N.3    13  LEU13      -0.1231
     13  CA         0.4460   29.2590    2.7520 C.3    13  LEU13       0.1696
     14  C          1.6580   28.9520    1.8720 C.2    13  LEU13       0.2632
     15  O          2.3110   29.8440    1.3400 O.2    13  LEU13      -0.2714
     16  CB         0.9010   29.5420    4.1980 C.3    13  LEU13       0.0284
     17  CG        -0.1410   30.0540    5.1940 C.3    13  LEU13       0.0019
     18  CD1        0.3780   29.9920    6.6340 C.3    13  LEU13       0.0001
     19  CD2       -0.5180   31.4400    4.8120 C.3    13  LEU13       0.0001
     20  N          1.9500   27.6690    1.7520 N.am   14  GLY14      -0.1718
     21  CA         2.9490   27.2050    0.8060 C.2    14  GLY14       0.1480
     22  C          3.3150   25.7420    0.8770 C.2    14  GLY14       0.2820
     23  O          2.6990   24.9410    1.5970 O.2    14  GLY14      -0.2669
     24  N          4.3610   25.4330    0.1190 N.am   15  LYS15      -0.1943
     25  CA         4.8210   24.0530   -0.1200 C.3    15  LYS15       0.1599
     26  C          6.2660   23.8180    0.3690 C.2    15  LYS15       0.2287
     27  O          6.8470   24.6050    1.1440 O.2    15  LYS15      -0.2864
     28  CB         4.7020   23.6920   -1.6090 C.3    15  LYS15       0.0298
     29  CG         3.3230   23.9260   -2.2070 C.3    15  LYS15       0.0038
     30  CD         3.4120   24.3260   -3.7080 C.3    15  LYS15       0.0206
     31  CE         3.7730   25.8140   -3.9400 C.3    15  LYS15       0.1093
     32  NZ         2.8070   26.7490   -3.2970 N.3    15  LYS15      -0.1314
     33  N          2.5090   24.0210    4.4450 N.3    21  VAL21      -0.1245
     34  CA         2.1040   24.8690    5.5580 C.3    21  VAL21       0.1561
     35  C          0.7480   25.5080    5.2650 C.2    21  VAL21       0.2260
     36  O          0.5210   26.1320    4.2150 O.2    21  VAL21      -0.2867
     37  CB         3.0990   26.0250    5.8620 C.3    21  VAL21       0.0252
     38  CG1        2.8490   26.5140    7.2700 C.3    21  VAL21       0.0019
     39  CG2        4.5700   25.6110    5.6940 C.3    21  VAL21       0.0019
     40  N          0.1040   28.8590   12.0320 N.3    34  ALA34      -0.1245
     41  CA         0.4430   28.1200   10.8030 C.3    34  ALA34       0.1562
     42  C          0.8120   26.7040   11.1530 C.2    34  ALA34       0.2260
     43  O          1.6360   26.4420   12.0160 O.2    34  ALA34      -0.2867
     44  CB         1.5660   28.7830   10.0760 C.3    34  ALA34       0.0290
     45  N          2.4800   23.5030    9.8270 N.3    36  LYS36      -0.1245
     46  CA         3.4730   22.9530    8.9030 C.3    36  LYS36       0.1561
     47  C          3.2380   21.4640    8.9290 C.2    36  LYS36       0.2260
     48  O          3.4330   20.8360    9.9580 O.2    36  LYS36      -0.2867
     49  CB         4.8900   23.2980    9.4090 C.3    36  LYS36       0.0271
     50  CG         5.9950   23.1460    8.4040 C.3    36  LYS36       0.0035
     51  CD         7.2480   23.9590    8.7900 C.3    36  LYS36       0.0206
     52  CE         8.0440   24.3420    7.5100 C.3    36  LYS36       0.1093
     53  NZ         8.7960   25.6420    7.5990 N.3    36  LYS36      -0.1314
     54  N         10.6500   33.3300   14.4460 N.3    68  LEU68      -0.1245
     55  CA         9.3050   32.7240   14.3560 C.3    68  LEU68       0.1561
     56  C          9.1760   31.7320   15.4860 C.2    68  LEU68       0.2260
     57  O         10.0160   30.8550   15.6420 O.2    68  LEU68      -0.2867
     58  CB         9.0490   32.0300   12.9940 C.3    68  LEU68       0.0270
     59  CG         7.6070   31.8420   12.5210 C.3    68  LEU68       0.0019
     60  CD1        6.9320   33.1710   12.2350 C.3    68  LEU68       0.0001
     61  CD2        7.5740   31.0060   11.2830 C.3    68  LEU68       0.0001
     62  N          3.2700   26.5220   14.2180 N.3    84  LEU84      -0.1231
     63  CA         4.0740   27.7550   14.0970 C.3    84  LEU84       0.1693
     64  C          3.2920   29.0550   14.2980 C.2    84  LEU84       0.2592
     65  O          2.1230   29.1870   13.9370 O.2    84  LEU84      -0.2718
     66  CB         4.7850   27.7840   12.7320 C.3    84  LEU84       0.0284
     67  CG         5.8390   26.6780   12.4440 C.3    84  LEU84       0.0019
     68  CD1        6.2850   26.7640   11.0080 C.3    84  LEU84       0.0001
     69  CD2        7.0650   26.7470   13.3540 C.3    84  LEU84       0.0001
     70  N          3.9640   30.0170   14.8970 N.am   85  GLU85      -0.1966
     71  CA         3.5230   31.4020   14.7970 C.3    85  GLU85       0.1733
     72  C          3.2340   31.6900   13.3340 C.2    85  GLU85       0.2616
     73  O          3.8790   31.1730   12.4590 O.2    85  GLU85      -0.2715
     74  CB         4.5820   32.3760   15.3450 C.3    85  GLU85       0.0429
     75  CG         4.4480   33.8350   14.8990 C.3    85  GLU85       0.1163
     76  CD         5.5680   34.7410   15.5070 C.2    85  GLU85       0.3649
     77  OE1        5.4240   35.9880   15.4160 O.co2  85  GLU85      -0.2457
     78  OE2        6.5830   34.2290   16.0850 O.co2  85  GLU85      -0.2457
     79  N          2.2190   32.5020   13.0920 N.am   86  TYR86      -0.1960
     80  CA         1.8100   32.9130   11.7460 C.3    86  TYR86       0.1771
     81  C          2.2960   34.3300   11.5150 C.2    86  TYR86       0.2619
     82  O          2.1280   35.1990   12.3450 O.2    86  TYR86      -0.2715
     83  CB         0.2890   32.7840   11.5710 C.3    86  TYR86       0.0574
     84  CG        -0.3200   33.6170   10.4450 C.ar   86  TYR86      -0.0198
     85  CD1       -0.0760   33.3110    9.1090 C.ar   86  TYR86      -0.0009
     86  CD2       -1.1750   34.6770   10.7190 C.ar   86  TYR86      -0.0009
     87  CE1       -0.6300   34.0610    8.0810 C.ar   86  TYR86       0.0417
     88  CE2       -1.7350   35.4400    9.6960 C.ar   86  TYR86       0.0417
     89  CZ        -1.4520   35.1240    8.3820 C.ar   86  TYR86       0.1957
     90  OH        -1.9930   35.8610    7.3580 O.3    86  TYR86      -0.2866
     91  N          2.9590   34.5400   10.3880 N.am   87  ALA87      -0.1964
     92  CA         3.5900   35.8320   10.1130 C.3    87  ALA87       0.1713
     93  C          2.8460   36.5080    9.0010 C.2    87  ALA87       0.2458
     94  O          2.9840   36.1180    7.8880 O.2    87  ALA87      -0.2730
     95  CB         5.0420   35.6300    9.7390 C.3    87  ALA87       0.0333
     96  N          2.0430   37.5200    9.3040 N.am   88  PRO88      -0.2716
     97  CA         1.0080   37.9230    8.3330 C.3    88  PRO88       0.1536
     98  C          1.4780   38.4410    7.0000 C.2    88  PRO88       0.2598
     99  O          0.7120   38.3960    6.0480 O.2    88  PRO88      -0.2715
    100  CB         0.2520   39.0210    9.0620 C.3    88  PRO88       0.0310
    101  CG         0.3660   38.6140   10.5090 C.3    88  PRO88       0.0237
    102  CD         1.7990   38.0960   10.6330 C.3    88  PRO88       0.0939
    103  N          2.7260   38.8920    6.9040 N.am   89  LEU89      -0.1964
    104  CA         3.1930   39.5150    5.6390 C.3    89  LEU89       0.1728
    105  C          4.1390   38.7040    4.7480 C.2    89  LEU89       0.2617
    106  O          4.8560   39.2490    3.9320 O.2    89  LEU89      -0.2715
    107  CB         3.7680   40.8920    5.8980 C.3    89  LEU89       0.0311
    108  CG         2.7310   41.8760    6.4240 C.3    89  LEU89       0.0022
    109  CD1        3.4070   43.2170    6.5580 C.3    89  LEU89       0.0001
    110  CD2        1.4930   41.9770    5.5190 C.3    89  LEU89       0.0001
    111  N          4.1040   37.3970    4.8840 N.am   90  GLY90      -0.1940
    112  CA         4.8150   36.5050    3.9630 C.3    90  GLY90       0.2014
    113  C          6.3250   36.5880    4.0960 C.2    90  GLY90       0.2639
    114  O          6.8820   37.1250    5.0740 O.2    90  GLY90      -0.2714
    115  N          6.9800   36.0780    3.0690 N.am   91  THR91      -0.1950
    116  CA         8.4300   35.9600    3.0720 C.3    91  THR91       0.1897
    117  C          9.0430   37.1880    2.4470 C.2    91  THR91       0.2313
    118  O          8.4250   37.8610    1.6220 O.2    91  THR91      -0.2863
    119  CB         8.9160   34.7260    2.3130 C.3    91  THR91       0.1794
    120  OG1        8.6710   34.9310    0.9260 O.3    91  THR91      -0.2208
    121  CG2        8.1750   33.4590    2.7920 C.3    91  THR91       0.0378
    122  N         14.1230   33.2050    1.4740 N.3   134  GLU134     -0.1245
    123  CA        12.9820   32.2910    1.4700 C.3   134  GLU134      0.1567
    124  C         12.6130   31.9440    2.9000 C.2   134  GLU134      0.2260
    125  O         11.5160   31.4860    3.1580 O.2   134  GLU134     -0.2867
    126  CB        13.2580   30.9980    0.6770 C.3   134  GLU134      0.0388
    127  CG        14.3430   31.1320   -0.4360 C.3   134  GLU134      0.1160
    128  CD        14.2400   30.0680   -1.5090 C.2   134  GLU134      0.3649
    129  OE1       13.4960   29.0770   -1.2900 O.co2 134  GLU134     -0.2457
    130  OE2       14.9020   30.2370   -2.5650 O.co2 134  GLU134     -0.2457
    131  N         10.3930   35.5510    7.3650 N.3   137  LEU137     -0.1245
    132  CA         9.0050   35.9770    7.3490 C.3   137  LEU137      0.1561
    133  C          8.8600   37.4090    7.8800 C.2   137  LEU137      0.2260
    134  O          9.8010   38.0200    8.3600 O.2   137  LEU137     -0.2867
    135  CB         8.1360   34.9960    8.1280 C.3   137  LEU137      0.0270
    136  CG         8.1420   33.5950    7.5040 C.3   137  LEU137      0.0019
    137  CD1        7.7060   32.5250    8.4740 C.3   137  LEU137      0.0001
    138  CD2        7.2550   33.5710    6.2900 C.3   137  LEU137      0.0001
    139  N         12.7950   32.2820   10.2130 N.3   147  ALA147     -0.1245
    140  CA        12.1030   31.0080   10.2690 C.3   147  ALA147      0.1562
    141  C         13.0670   29.8730   10.1110 C.2   147  ALA147      0.2260
    142  O         14.2850   30.0470   10.1050 O.2   147  ALA147     -0.2867
    143  CB        11.0410   30.9360    9.1820 C.3   147  ALA147      0.0290
@<TRIPOS>BOND
     1    31    30    1
     2    31    32    1
     3    30    29    1
     4   130   128   ar
     5    29    28    1
     6    28    25    1
     7   128   129   ar
     8   128   127    1
     9   127   126    1
    10    25    24    1
    11    25    26    1
    12    24    22   am
    13    26    27    2
    14    10     9    1
    15   126   123    1
    16    21    22    1
    17    21    20    2
    18    22    23    2
    19   120   119    1
    20    15    14    2
    21   123   122    1
    22   123   124    1
    23   118   117    2
    24    20    14    1
    25    14    13    1
    26     7     8    1
    27     7     6    1
    28     9     8    2
    29     9    11    1
    30   119   121    1
    31   119   116    1
    32     5     6    1
    33     5     2    1
    34   117   116    1
    35    12    13    1
    36    13    16    1
    37   124   125    2
    38   115   116    1
    39   115   113   am
    40     2     3    1
    41     2     1    1
    42     3     4    2
    43   106   105    2
    44   112   113    1
    45   112   111    1
    46   113   114    2
    47    16    17    1
    48    36    35    2
    49    33    34    1
    50   105   111   am
    51   105   104    1
    52    19    17    1
    53    17    18    1
    54    35    34    1
    55   110   108    1
    56    34    37    1
    57   104   107    1
    58   104   103    1
    59    39    37    1
    60    37    38    1
    61   107   108    1
    62    99    98    2
    63   138   136    1
    64   108   109    1
    65   103    98   am
    66    98    97    1
    67   132   131    1
    68   132   133    1
    69   132   135    1
    70    90    89    1
    71   136   135    1
    72   136   137    1
    73    52    53    1
    74    52    51    1
    75   133   134    2
    76    94    93    2
    77    87    89   ar
    78    87    85   ar
    79    97   100    1
    80    97    96    1
    81    89    88   ar
    82    50    51    1
    83    50    49    1
    84    46    47    1
    85    46    49    1
    86    46    45    1
    87    47    48    2
    88    93    96   am
    89    93    92    1
    90   100   101    1
    91    85    84   ar
    92   143   140    1
    93    96   102    1
    94    88    86   ar
    95    95    92    1
    96    44    41    1
    97   142   141    2
    98   141   140    1
    99    92    91    1
   100   139   140    1
   101    91    81   am
   102    84    86   ar
   103    84    83    1
   104   101   102    1
   105    41    42    1
   106    41    40    1
   107    68    67    1
   108    42    43    2
   109    61    59    1
   110    81    80    1
   111    81    82    2
   112    83    80    1
   113    80    79    1
   114    60    59    1
   115    67    66    1
   116    67    69    1
   117    73    72    2
   118    59    58    1
   119    66    63    1
   120    58    55    1
   121    79    72   am
   122    72    71    1
   123    65    64    2
   124    63    62    1
   125    63    64    1
   126    64    70   am
   127    55    54    1
   128    55    56    1
   129    71    70    1
   130    71    74    1
   131    75    74    1
   132    75    76    1
   133    77    76   ar
   134    56    57    2
   135    76    78   ar
