@<TRIPOS>MOLECULE
tmp/2w1hA00.pdb
 175 167 0 0 0
SMALL
GASTEIGER

@<TRIPOS>ATOM
      1  N         26.5030   11.7570   66.8970 N.3    10  ILE10      -0.1231
      2  CA        27.6650   11.4110   66.0950 C.3    10  ILE10       0.1696
      3  C         27.4620   11.7020   64.6110 C.2    10  ILE10       0.2632
      4  O         28.3670   11.4970   63.8030 O.2    10  ILE10      -0.2714
      5  CB        28.0500    9.9230   66.2910 C.3    10  ILE10       0.0266
      6  CG1       26.8950    9.0110   65.8750 C.3    10  ILE10       0.0019
      7  CG2       28.4000    9.6720   67.7510 C.3    10  ILE10       0.0020
      8  CD1       27.1690    7.5340   66.1060 C.3    10  ILE10       0.0001
      9  N         26.2790   12.1960   64.2560 N.am   11  GLY11      -0.1718
     10  CA        26.0110   12.5080   62.8630 C.2    11  GLY11       0.1480
     11  C         24.5700   12.8580   62.5370 C.2    11  GLY11       0.2820
     12  O         23.6520   12.5410   63.2940 O.2    11  GLY11      -0.2669
     13  N         24.3810   13.5230   61.4010 N.am   12  GLU12      -0.1929
     14  CA        23.0560   13.9170   60.9360 C.3    12  GLU12       0.1736
     15  C         22.7680   13.1260   59.6650 C.2    12  GLU12       0.2617
     16  O         22.9950   13.6140   58.5580 O.2    12  GLU12      -0.2715
     17  CB        23.0130   15.4170   60.6190 C.3    12  GLU12       0.0429
     18  CG        23.5560   16.3310   61.7120 C.3    12  GLU12       0.1163
     19  CD        22.8550   16.1490   63.0460 C.2    12  GLU12       0.3649
     20  OE1       22.9800   15.0590   63.6390 O.co2  12  GLU12      -0.2457
     21  OE2       22.1790   17.0960   63.5010 O.co2  12  GLU12      -0.2457
     22  N         22.2770   11.9020   59.8300 N.am   13  GLY13      -0.1955
     23  CA        21.9780   11.0600   58.6860 C.3    13  GLY13       0.1869
     24  C         20.9570   11.6520   57.7330 C.2    13  GLY13       0.2309
     25  O         20.6090   12.8290   57.8310 O.2    13  GLY13      -0.2863
     26  N         21.7300   10.5470   64.1970 N.3    18  VAL18      -0.1245
     27  CA        22.3500    9.3700   64.7880 C.3    18  VAL18       0.1561
     28  C         23.0210    9.7570   66.1000 C.2    18  VAL18       0.2260
     29  O         23.6650   10.8000   66.2000 O.2    18  VAL18      -0.2867
     30  CB        23.4020    8.7560   63.8510 C.3    18  VAL18       0.0252
     31  CG1       23.9020    7.4410   64.4280 C.3    18  VAL18       0.0019
     32  CG2       22.8030    8.5410   62.4710 C.3    18  VAL18       0.0019
     33  N         24.7840    2.5660   68.3360 N.3    31  ALA31      -0.1245
     34  CA        24.4530    3.7280   67.5150 C.3    31  ALA31       0.1562
     35  C         22.9410    3.7390   67.3110 C.2    31  ALA31       0.2260
     36  O         22.3910    2.8810   66.6220 O.2    31  ALA31      -0.2867
     37  CB        25.1640    3.6580   66.1740 C.3    31  ALA31       0.0290
     38  N         19.6030    5.4220   65.7990 N.3    33  LYS33      -0.1245
     39  CA        19.1540    6.2890   64.7190 C.3    33  LYS33       0.1561
     40  C         17.6550    6.5700   64.8040 C.2    33  LYS33       0.2260
     41  O         16.8350    5.6550   64.6950 O.2    33  LYS33      -0.2867
     42  CB        19.4840    5.6480   63.3660 C.3    33  LYS33       0.0271
     43  CG        19.0440    6.4590   62.1570 C.3    33  LYS33       0.0035
     44  CD        19.3180    5.7070   60.8650 C.3    33  LYS33       0.0206
     45  CE        18.7770    6.4570   59.6570 C.3    33  LYS33       0.1093
     46  NZ        19.4580    7.7620   59.4430 N.3    33  LYS33      -0.1314
     47  N         27.2540   -2.6480   58.6150 N.3    60  VAL60      -0.1245
     48  CA        26.9520   -2.3060   60.0050 C.3    60  VAL60       0.1561
     49  C         25.7260   -3.1070   60.4050 C.2    60  VAL60       0.2260
     50  O         24.6760   -2.9900   59.7750 O.2    60  VAL60      -0.2867
     51  CB        26.6380   -0.8050   60.1650 C.3    60  VAL60       0.0252
     52  CG1       26.4450   -0.4610   61.6340 C.3    60  VAL60       0.0019
     53  CG2       27.7580    0.0160   59.5670 C.3    60  VAL60       0.0019
     54  N         21.9200    0.2080   65.7460 N.3    76  PHE76      -0.1227
     55  CA        23.0460   -0.3800   65.0180 C.3    76  PHE76       0.1736
     56  C         24.2690   -0.6040   65.8840 C.2    76  PHE76       0.2595
     57  O         24.5280    0.1630   66.8010 O.2    76  PHE76      -0.2718
     58  CB        23.4770    0.5450   63.8850 C.3    76  PHE76       0.0547
     59  CG        22.4910    0.6530   62.7720 C.ar   76  PHE76      -0.0202
     60  CD1       22.2850   -0.4120   61.9040 C.ar   76  PHE76      -0.0042
     61  CD2       21.8020    1.8400   62.5570 C.ar   76  PHE76      -0.0042
     62  CE1       21.4070   -0.2960   60.8340 C.ar   76  PHE76      -0.0003
     63  CE2       20.9210    1.9670   61.4910 C.ar   76  PHE76      -0.0003
     64  CZ        20.7250    0.8970   60.6240 C.ar   76  PHE76      -0.0000
     65  N         25.0480   -1.6310   65.5630 N.am   77  GLU77      -0.1965
     66  CA        26.2660   -1.9020   66.3140 C.3    77  GLU77       0.1733
     67  C         27.1090   -0.6320   66.2290 C.2    77  GLU77       0.2616
     68  O         27.1030    0.0490   65.2060 O.2    77  GLU77      -0.2715
     69  CB        27.0400   -3.0620   65.6870 C.3    77  GLU77       0.0429
     70  CG        27.6430   -2.7380   64.3310 C.3    77  GLU77       0.1163
     71  CD        28.6210   -3.7950   63.8670 C.2    77  GLU77       0.3649
     72  OE1       29.4880   -4.1880   64.6720 O.co2  77  GLU77      -0.2457
     73  OE2       28.5310   -4.2290   62.7000 O.co2  77  GLU77      -0.2457
     74  N         27.8330   -0.3070   67.2910 N.am   78  PHE78      -0.1960
     75  CA        28.6570    0.8920   67.2780 C.3    78  PHE78       0.1771
     76  C         30.0640    0.6730   66.7260 C.2    78  PHE78       0.2619
     77  O         30.7750   -0.2400   67.1500 O.2    78  PHE78      -0.2715
     78  CB        28.7700    1.4720   68.6840 C.3    78  PHE78       0.0574
     79  CG        29.6240    2.6920   68.7550 C.ar   78  PHE78      -0.0200
     80  CD1       29.1430    3.9150   68.2980 C.ar   78  PHE78      -0.0042
     81  CD2       30.9180    2.6170   69.2500 C.ar   78  PHE78      -0.0042
     82  CE1       29.9320    5.0450   68.3370 C.ar   78  PHE78      -0.0003
     83  CE2       31.7120    3.7390   69.2930 C.ar   78  PHE78      -0.0003
     84  CZ        31.2160    4.9590   68.8340 C.ar   78  PHE78      -0.0000
     85  N         30.4520    1.5240   65.7800 N.am   79  LEU79      -0.1963
     86  CA        31.7750    1.4650   65.1740 C.3    79  LEU79       0.1728
     87  C         32.6710    2.5670   65.6910 C.2    79  LEU79       0.2616
     88  O         32.1890    3.6450   66.0660 O.2    79  LEU79      -0.2715
     89  CB        31.6730    1.5480   63.6640 C.3    79  LEU79       0.0311
     90  CG        31.5610    0.1170   63.1370 C.3    79  LEU79       0.0022
     91  CD1       30.1570   -0.4320   63.2220 C.3    79  LEU79       0.0001
     92  CD2       32.0230    0.1440   61.7260 C.3    79  LEU79       0.0001
     93  N         33.9760    2.3120   65.6820 N.am   80  HIS80      -0.1959
     94  CA        34.9660    3.2450   66.2070 C.3    80  HIS80       0.1787
     95  C         35.1340    4.6200   65.5600 C.2    80  HIS80       0.2620
     96  O         35.3200    5.5980   66.2720 O.2    80  HIS80      -0.2715
     97  CB        36.3360    2.5540   66.3030 C.3    80  HIS80       0.0785
     98  CG        36.2790    1.1900   66.9230 C.ar   80  HIS80       0.0821
     99  ND1       37.3850    0.3710   67.0140 N.ar   80  HIS80      -0.2267
    100  CD2       35.2450    0.4910   67.4440 C.ar   80  HIS80       0.1154
    101  CE1       37.0300   -0.7750   67.5640 C.ar   80  HIS80       0.1986
    102  NE2       35.7390   -0.7330   67.8340 N.ar   80  HIS80      -0.2212
    103  N         35.0460    4.7010   64.2390 N.am   81  GLN81      -0.1963
    104  CA        35.2130    5.9980   63.5710 C.3    81  GLN81       0.1733
    105  C         34.6330    5.9140   62.1710 C.2    81  GLN81       0.2616
    106  O         34.4290    4.8190   61.6490 O.2    81  GLN81      -0.2715
    107  CB        36.7030    6.3370   63.4970 C.3    81  GLN81       0.0408
    108  CG        37.0490    7.7520   63.0520 C.3    81  GLN81       0.0908
    109  CD        38.5440    8.0220   63.1370 C.2    81  GLN81       0.2608
    110  OE1       39.2990    7.7010   62.2210 O.2    81  GLN81      -0.2717
    111  NE2       38.9780    8.5950   64.2540 N.am   81  GLN81      -0.0878
    112  N         34.3600    7.0610   61.5640 N.am   82  ASP82      -0.1971
    113  CA        33.8320    7.0580   60.2110 C.3    82  ASP82       0.1709
    114  C         34.9900    7.3430   59.2750 C.2    82  ASP82       0.2293
    115  O         36.0000    7.9030   59.6910 O.2    82  ASP82      -0.2864
    116  CB        32.7200    8.1010   60.0400 C.3    82  ASP82       0.1436
    117  CG        33.2130    9.5270   60.1900 C.2    82  ASP82       0.3671
    118  OD1       34.4410    9.7440   60.2360 O.co2  82  ASP82      -0.2456
    119  OD2       32.3660   10.4370   60.2510 O.co2  82  ASP82      -0.2456
    120  N         36.3620   11.2060   59.0810 N.3    85  LYS85      -0.1245
    121  CA        37.2520   11.6680   60.1440 C.3    85  LYS85       0.1561
    122  C         38.6500   11.0910   59.9540 C.2    85  LYS85       0.2260
    123  O         39.6480   11.7890   60.1210 O.2    85  LYS85      -0.2867
    124  CB        36.6850   11.2530   61.5080 C.3    85  LYS85       0.0271
    125  CG        37.3850   11.8480   62.7330 C.3    85  LYS85       0.0035
    126  CD        38.7580   11.2350   62.9750 C.3    85  LYS85       0.0206
    127  CE        39.3330   11.6610   64.3200 C.3    85  LYS85       0.1093
    128  NZ        40.7200   11.1450   64.5170 N.3    85  LYS85      -0.1314
    129  N         28.9020    7.5290   51.0630 N.3   125  LYS125     -0.1245
    130  CA        29.7230    8.7060   51.3030 C.3   125  LYS125      0.1561
    131  C         30.6440    8.4340   52.4850 C.2   125  LYS125      0.2260
    132  O         30.3300    7.6160   53.3490 O.2   125  LYS125     -0.2867
    133  CB        28.8460    9.9290   51.5810 C.3   125  LYS125      0.0271
    134  CG        27.9760    9.8260   52.8210 C.3   125  LYS125      0.0035
    135  CD        27.3090   11.1600   53.1270 C.3   125  LYS125      0.0206
    136  CE        26.2330   11.4980   52.1150 C.3   125  LYS125      0.1093
    137  NZ        25.0500   10.6170   52.2750 N.3   125  LYS125     -0.1314
    138  N         31.0380    9.6550   55.1790 N.3   127  GLN127     -0.1231
    139  CA        30.3920    9.7500   56.4860 C.3   127  GLN127      0.1698
    140  C         29.6750    8.4700   56.9160 C.2   127  GLN127      0.2592
    141  O         29.5570    8.2050   58.1130 O.2   127  GLN127     -0.2718
    142  CB        29.3950   10.9130   56.5220 C.3   127  GLN127      0.0381
    143  CG        30.0160   12.2980   56.5930 C.3   127  GLN127      0.0905
    144  CD        30.7490   12.6790   55.3270 C.2   127  GLN127      0.2608
    145  OE1       30.2430   12.4840   54.2210 O.2   127  GLN127     -0.2717
    146  NE2       31.9420   13.2400   55.4790 N.am  127  GLN127     -0.0878
    147  N         29.1840    7.6790   55.9620 N.am  128  ASN128     -0.1974
    148  CA        28.4980    6.4440   56.3360 C.3   128  ASN128      0.1688
    149  C         29.2970    5.1650   56.1030 C.2   128  ASN128      0.2292
    150  O         28.7400    4.0710   56.0350 O.2   128  ASN128     -0.2864
    151  CB        27.1150    6.3360   55.6710 C.3   128  ASN128      0.1181
    152  CG        27.1430    6.6170   54.1860 C.2   128  ASN128      0.2629
    153  OD1       28.0640    6.2130   53.4800 O.2   128  ASN128     -0.2716
    154  ND2       26.1100    7.2990   53.6980 N.am  128  ASN128     -0.0877
    155  N         32.0910    3.0520   57.8950 N.3   130  LEU130     -0.1245
    156  CA        32.6270    2.9950   59.2490 C.3   130  LEU130      0.1561
    157  C         33.8050    2.0490   59.4350 C.2   130  LEU130      0.2260
    158  O         33.8390    0.9640   58.8560 O.2   130  LEU130     -0.2867
    159  CB        31.5050    2.6120   60.2010 C.3   130  LEU130      0.0270
    160  CG        30.2050    3.3870   60.0320 C.3   130  LEU130      0.0019
    161  CD1       29.1280    2.6830   60.8110 C.3   130  LEU130      0.0001
    162  CD2       30.3790    4.8240   60.4960 C.3   130  LEU130      0.0001
    163  N         27.0270    1.6390   56.2370 N.3   140  ALA140     -0.1231
    164  CA        25.9230    1.9720   57.1300 C.3   140  ALA140      0.1694
    165  C         24.8710    2.7420   56.3410 C.2   140  ALA140      0.2592
    166  O         25.2030    3.4290   55.3780 O.2   140  ALA140     -0.2718
    167  CB        26.4230    2.8120   58.2920 C.3   140  ALA140      0.0304
    168  N         23.6120    2.6240   56.7620 N.am  141  ASP141     -0.1974
    169  CA        22.4860    3.2880   56.1020 C.3   141  ASP141      0.1709
    170  C         22.0540    2.5300   54.8600 C.2   141  ASP141      0.2293
    171  O         21.3720    3.0720   53.9930 O.2   141  ASP141     -0.2864
    172  CB        22.8470    4.7270   55.7260 C.3   141  ASP141      0.1436
    173  CG        22.6420    5.6920   56.8700 C.2   141  ASP141      0.3671
    174  OD1       22.7910    5.2660   58.0310 O.co2 141  ASP141     -0.2456
    175  OD2       22.3390    6.8750   56.6110 O.co2 141  ASP141     -0.2456
@<TRIPOS>BOND
     1   129   130    1
     2   130   133    1
     3   130   131    1
     4   133   134    1
     5   136   137    1
     6   136   135    1
     7   131   132    2
     8   134   135    1
     9   153   152    2
    10   154   152   am
    11   171   170    2
    12   152   151    1
    13   145   144    2
    14   170   169    1
    15   138   139    1
    16   144   146   am
    17   144   143    1
    18   166   165    2
    19   151   148    1
    20   172   169    1
    21   172   173    1
    22   147   148    1
    23   147   140   am
    24   150   149    2
    25   169   168    1
    26   149   148    1
    27   163   164    1
    28   165   168   am
    29   165   164    1
    30   139   142    1
    31   139   140    1
    32   142   143    1
    33   175   173   ar
    34   173   174   ar
    35   140   141    2
    36   164   167    1
    37    24    25    2
    38    24    23    1
    39   155   156    1
    40    16    15    2
    41    47    48    1
    42    23    22    1
    43   158   157    2
    44   120   121    1
    45   156   157    1
    46   156   159    1
    47   114   115    2
    48   114   113    1
    49    46    45    1
    50    53    51    1
    51    45    44    1
    52    15    22   am
    53    15    14    1
    54    50    49    2
    55   122   123    2
    56   122   121    1
    57    48    51    1
    58    48    49    1
    59   160   159    1
    60   160   162    1
    61   160   161    1
    62   116   117    1
    63   116   113    1
    64   121   124    1
    65    51    52    1
    66   117   118   ar
    67   117   119   ar
    68   113   112    1
    69    17    14    1
    70    17    18    1
    71    64    62   ar
    72    64    63   ar
    73    62    60   ar
    74    44    43    1
    75    14    13    1
    76    13    11   am
    77    63    61   ar
    78   124   125    1
    79   112   105   am
    80   106   105    2
    81    18    19    1
    82    92    90    1
    83    60    59   ar
    84    43    42    1
    85   105   104    1
    86   110   109    2
    87    32    30    1
    88    11    10    1
    89    11    12    2
    90    61    59   ar
    91    73    71   ar
    92   125   126    1
    93    59    58    1
    94    10     9    2
    95   126   127    1
    96    19    21   ar
    97    19    20   ar
    98   108   109    1
    99   108   107    1
   100   109   111   am
   101    90    91    1
   102    90    89    1
   103    42    39    1
   104   107   104    1
   105   104   103    1
   106    89    86    1
   107     4     3    2
   108    30    31    1
   109    30    27    1
   110    71    70    1
   111    71    72   ar
   112    58    55    1
   113    26    27    1
   114   103    95   am
   115     9     3    1
   116   127   128    1
   117    70    69    1
   118     3     2    1
   119    41    40    2
   120    39    40    1
   121    39    38    1
   122    27    28    1
   123    55    54    1
   124    55    56    1
   125    86    87    1
   126    86    85    1
   127    68    67    2
   128    95    94    1
   129    95    96    2
   130    65    56   am
   131    65    66    1
   132    93    87   am
   133    93    94    1
   134    69    66    1
   135    87    88    2
   136    85    76   am
   137     6     8    1
   138     6     5    1
   139    56    57    2
   140     2     5    1
   141     2     1    1
   142    28    29    2
   143    37    34    1
   144    94    97    1
   145    67    66    1
   146    67    74   am
   147     5     7    1
   148    97    98    1
   149    36    35    2
   150    76    77    2
   151    76    75    1
   152    98    99   ar
   153    98   100   ar
   154    99   101   ar
   155    75    74    1
   156    75    78    1
   157    35    34    1
   158   100   102   ar
   159    34    33    1
   160   101   102   ar
   161    80    82   ar
   162    80    79   ar
   163    82    84   ar
   164    78    79    1
   165    79    81   ar
   166    84    83   ar
   167    81    83   ar
