@<TRIPOS>MOLECULE
tmp/2w1iA00.pdb
 171 162 0 0 0
SMALL
GASTEIGER

@<TRIPOS>ATOM
      1  N         46.8070    7.2040  -12.5960 N.3    11  GLN11      -0.1245
      2  CA        46.0230    6.0330  -12.9800 C.3    11  GLN11       0.1566
      3  C         44.6390    6.0810  -12.3730 C.2    11  GLN11       0.2260
      4  O         44.3760    6.8440  -11.4420 O.2    11  GLN11      -0.2867
      5  CB        46.7210    4.7330  -12.5690 C.3    11  GLN11       0.0367
      6  CG        47.0840    4.6510  -11.0980 C.3    11  GLN11       0.0905
      7  CD        47.7840    3.3460  -10.7160 C.2    11  GLN11       0.2608
      8  OE1       48.8100    3.3610  -10.0270 O.2    11  GLN11      -0.2717
      9  NE2       47.2230    2.2160  -11.1460 N.am   11  GLN11      -0.0878
     10  N         41.7870    4.4420  -10.1020 N.3    13  LEU13      -0.1231
     11  CA        41.7800    3.5910   -8.9180 C.3    13  LEU13       0.1696
     12  C         40.5250    2.7220   -8.9220 C.2    13  LEU13       0.2632
     13  O         40.6160    1.5190   -8.6710 O.2    13  LEU13      -0.2714
     14  CB        41.8550    4.4300   -7.6350 C.3    13  LEU13       0.0284
     15  CG        43.1410    5.2230   -7.4680 C.3    13  LEU13       0.0019
     16  CD1       43.0600    6.2460   -6.3260 C.3    13  LEU13       0.0001
     17  CD2       44.2970    4.2520   -7.2610 C.3    13  LEU13       0.0001
     18  N         39.3590    3.3240   -9.1870 N.am   14  GLY14      -0.1718
     19  CA        38.1250    2.5490   -9.2820 C.2    14  GLY14       0.1480
     20  C         36.8600    3.3570   -9.4370 C.2    14  GLY14       0.2820
     21  O         36.8890    4.5770   -9.3580 O.2    14  GLY14      -0.2669
     22  N         35.7550    2.6540   -9.6960 N.am   15  LYS15      -0.1929
     23  CA        34.4000    3.2280   -9.6980 C.3    15  LYS15       0.1731
     24  C         33.6730    2.7990   -8.4300 C.2    15  LYS15       0.2616
     25  O         33.8450    1.6640   -7.9740 O.2    15  LYS15      -0.2715
     26  CB        33.5760    2.7760  -10.9200 C.3    15  LYS15       0.0312
     27  CG        33.7030    3.6820  -12.1520 C.3    15  LYS15       0.0038
     28  CD        34.6670    3.1180  -13.1980 C.3    15  LYS15       0.0206
     29  CE        35.3720    4.2030  -14.0130 C.3    15  LYS15       0.1093
     30  NZ        34.4480    4.9870  -14.8790 N.3    15  LYS15      -0.1314
     31  N         32.8700    3.7110   -7.8720 N.am   16  GLY16      -0.1955
     32  CA        31.9930    3.4130   -6.7370 C.3    16  GLY16       0.1869
     33  C         30.5370    3.6040   -7.1190 C.2    16  GLY16       0.2309
     34  O         30.2030    3.6600   -8.3000 O.2    16  GLY16      -0.2863
     35  N         37.0890    7.2730   -9.1680 N.3    21  VAL21      -0.1245
     36  CA        38.1940    7.7030   -8.3140 C.3    21  VAL21       0.1561
     37  C         39.5400    7.4960   -9.0040 C.2    21  VAL21       0.2260
     38  O         39.8600    6.3910   -9.4190 O.2    21  VAL21      -0.2867
     39  CB        38.1900    6.9370   -6.9720 C.3    21  VAL21       0.0252
     40  CG1       39.2640    7.5020   -6.0460 C.3    21  VAL21       0.0019
     41  CG2       36.7990    6.9830   -6.3440 C.3    21  VAL21       0.0019
     42  N         43.9440    8.2330   -9.1110 N.3    23  MET23      -0.1245
     43  CA        45.1930    8.5720   -8.4500 C.3    23  MET23       0.1570
     44  C         45.7720    9.7430   -9.2070 C.2    23  MET23       0.2261
     45  O         46.0180    9.6430  -10.4100 O.2    23  MET23      -0.2867
     46  CB        46.1610    7.3920   -8.5240 C.3    23  MET23       0.0387
     47  CG        47.5180    7.6030   -7.8300 C.3    23  MET23       0.0595
     48  SD        48.6000    6.1610   -8.0000 S.3    23  MET23      -0.1393
     49  CE        50.1870    6.9780   -7.7970 C.3    23  MET23       0.0692
     50  N         44.0320   10.9400   -3.7810 N.3    38  ALA38      -0.1245
     51  CA        42.9690   10.2090   -4.4320 C.3    38  ALA38       0.1562
     52  C         41.9530   11.2560   -4.8630 C.2    38  ALA38       0.2260
     53  O         41.7390   12.2290   -4.1480 O.2    38  ALA38      -0.2867
     54  CB        42.3520    9.1890   -3.4770 C.3    38  ALA38       0.0290
     55  N         37.9930   11.9500   -6.5600 N.3    40  LYS40      -0.1245
     56  CA        36.6770   11.4920   -7.0140 C.3    40  LYS40       0.1561
     57  C         35.9810   12.5260   -7.8980 C.2    40  LYS40       0.2260
     58  O         36.0130   13.7280   -7.6150 O.2    40  LYS40      -0.2867
     59  CB        35.7670   11.1220   -5.8450 C.3    40  LYS40       0.0271
     60  CG        34.4430   10.5250   -6.3160 C.3    40  LYS40       0.0035
     61  CD        33.7300    9.7360   -5.2500 C.3    40  LYS40       0.0206
     62  CE        32.3190    9.3570   -5.7030 C.3    40  LYS40       0.1093
     63  NZ        31.5440    8.5480   -4.6950 N.3    40  LYS40      -0.1314
     64  N         38.4670    7.2920    5.9380 N.3    69  VAL69      -0.1245
     65  CA        39.3320    7.9350    4.9520 C.3    69  VAL69       0.1561
     66  C         39.2500    9.4580    5.1400 C.2    69  VAL69       0.2260
     67  O         38.1570    9.9880    5.3730 O.2    69  VAL69      -0.2867
     68  CB        38.9430    7.4840    3.4710 C.3    69  VAL69       0.0252
     69  CG1       37.6020    8.1000    3.0400 C.3    69  VAL69       0.0019
     70  CG2       40.0190    7.8520    2.4570 C.3    69  VAL69       0.0019
     71  N         40.9690   13.3460   -1.6590 N.3    83  MET83      -0.1230
     72  CA        41.1060   12.5060   -0.4750 C.3    83  MET83       0.1702
     73  C         42.5190   11.9700   -0.3320 C.2    83  MET83       0.2592
     74  O         43.2470   11.8540   -1.3080 O.2    83  MET83      -0.2718
     75  CB        40.2020   11.2960   -0.5970 C.3    83  MET83       0.0401
     76  CG        38.7270   11.5740   -0.5880 C.3    83  MET83       0.0596
     77  SD        37.9220   10.0390   -1.0710 S.3    83  MET83      -0.1393
     78  CE        38.2500    9.9940   -2.8350 C.3    83  MET83       0.0692
     79  N         42.8790   11.5870    0.8870 N.am   84  GLU84      -0.1966
     80  CA        44.1180   10.8760    1.0950 C.3    84  GLU84       0.1733
     81  C         44.1370    9.6480    0.2000 C.2    84  GLU84       0.2616
     82  O         43.1170    9.0230   -0.0130 O.2    84  GLU84      -0.2715
     83  CB        44.3080   10.4960    2.5580 C.3    84  GLU84       0.0429
     84  CG        43.3110    9.5240    3.1230 C.3    84  GLU84       0.1163
     85  CD        43.6310    9.0830    4.5590 C.2    84  GLU84       0.3649
     86  OE1       42.7510    8.4210    5.1490 O.co2  84  GLU84      -0.2457
     87  OE2       44.7360    9.4010    5.0890 O.co2  84  GLU84      -0.2457
     88  N         45.2980    9.3450   -0.3630 N.am   85  TYR85      -0.1960
     89  CA        45.4980    8.1280   -1.1310 C.3    85  TYR85       0.1771
     90  C         45.9760    7.0590   -0.1820 C.2    85  TYR85       0.2619
     91  O         46.9120    7.2840    0.5530 O.2    85  TYR85      -0.2715
     92  CB        46.5400    8.3610   -2.2170 C.3    85  TYR85       0.0574
     93  CG        46.9600    7.1070   -2.9320 C.ar   85  TYR85      -0.0198
     94  CD1       46.1040    6.4810   -3.8340 C.ar   85  TYR85      -0.0009
     95  CD2       48.2250    6.5510   -2.7140 C.ar   85  TYR85      -0.0009
     96  CE1       46.4910    5.3420   -4.4890 C.ar   85  TYR85       0.0417
     97  CE2       48.6220    5.4150   -3.3610 C.ar   85  TYR85       0.0417
     98  CZ        47.7600    4.8120   -4.2470 C.ar   85  TYR85       0.1957
     99  OH        48.1650    3.6640   -4.8900 O.3    85  TYR85      -0.2866
    100  N         45.3100    5.9100   -0.1910 N.am   86  LEU86      -0.1964
    101  CA        45.6610    4.7540    0.6210 C.3    86  LEU86       0.1713
    102  C         46.1680    3.6520   -0.3200 C.2    86  LEU86       0.2458
    103  O         45.4020    3.0600   -1.0970 O.2    86  LEU86      -0.2730
    104  CB        44.4410    4.2720    1.4240 C.3    86  LEU86       0.0310
    105  CG        43.7900    5.2950    2.3620 C.3    86  LEU86       0.0022
    106  CD1       42.6690    4.6570    3.1880 C.3    86  LEU86       0.0001
    107  CD2       44.8420    5.8830    3.2600 C.3    86  LEU86       0.0001
    108  N         47.4750    3.3770   -0.2660 N.am   87  PRO87      -0.2716
    109  CA        48.1340    2.5850   -1.3070 C.3    87  PRO87       0.1536
    110  C         47.7330    1.1220   -1.4540 C.2    87  PRO87       0.2599
    111  O         48.0540    0.5460   -2.4820 O.2    87  PRO87      -0.2715
    112  CB        49.6130    2.6660   -0.9240 C.3    87  PRO87       0.0310
    113  CG        49.6260    2.9940    0.5210 C.3    87  PRO87       0.0237
    114  CD        48.4140    3.8140    0.7810 C.3    87  PRO87       0.0939
    115  N         47.0710    0.5210   -0.4600 N.am   88  TYR88      -0.1960
    116  CA        46.8310   -0.9290   -0.4540 C.3    88  TYR88       0.1771
    117  C         45.4740   -1.3370   -1.0400 C.2    88  TYR88       0.2620
    118  O         45.1400   -2.5170   -1.0800 O.2    88  TYR88      -0.2715
    119  CB        46.9840   -1.4940    0.9680 C.3    88  TYR88       0.0574
    120  CG        48.4130   -1.6080    1.4380 C.ar   88  TYR88      -0.0198
    121  CD1       49.1900   -0.4840    1.6290 C.ar   88  TYR88      -0.0009
    122  CD2       48.9830   -2.8410    1.6980 C.ar   88  TYR88      -0.0009
    123  CE1       50.5120   -0.5760    2.0680 C.ar   88  TYR88       0.0417
    124  CE2       50.3050   -2.9550    2.1340 C.ar   88  TYR88       0.0417
    125  CZ        51.0660   -1.8150    2.3160 C.ar   88  TYR88       0.1957
    126  OH        52.3740   -1.9010    2.7430 O.3    88  TYR88      -0.2866
    127  N         44.6880   -0.3690   -1.4920 N.am   89  GLY89      -0.1940
    128  CA        43.4260   -0.6650   -2.1610 C.3    89  GLY89       0.2014
    129  C         42.2990   -1.0500   -1.2350 C.2    89  GLY89       0.2639
    130  O         42.3650   -0.8300   -0.0250 O.2    89  GLY89      -0.2714
    131  N         41.2560   -1.6310   -1.8170 N.am   90  SER90      -0.1949
    132  CA        40.0940   -2.0490   -1.0530 C.3    90  SER90       0.1924
    133  C         40.4300   -3.2870   -0.2530 C.2    90  SER90       0.2314
    134  O         41.2820   -4.1030   -0.6430 O.2    90  SER90      -0.2863
    135  CB        38.8880   -2.3290   -1.9580 C.3    90  SER90       0.2116
    136  OG        38.9400   -3.6290   -2.5100 O.3    90  SER90      -0.2180
    137  N         39.8120   -6.6170   -2.1340 N.3    93  ASP93      -0.1239
    138  CA        40.8770   -7.0460   -3.0450 C.3    93  ASP93       0.1674
    139  C         42.1400   -7.4890   -2.3140 C.2    93  ASP93       0.2266
    140  O         42.7910   -8.4540   -2.7280 O.2    93  ASP93      -0.2867
    141  CB        41.2150   -5.9390   -4.0430 C.3    93  ASP93       0.1410
    142  CG        40.0130   -5.5170   -4.8690 C.2    93  ASP93       0.3668
    143  OD1       39.2730   -6.3980   -5.3760 O.co2  93  ASP93      -0.2456
    144  OD2       39.8030   -4.2910   -5.0040 O.co2  93  ASP93      -0.2456
    145  N         34.4580   -4.1150   -0.2010 N.3   134  ARG134     -0.1245
    146  CA        34.8650   -3.2740   -1.3460 C.3   134  ARG134      0.1563
    147  C         34.8120   -1.7730   -1.1020 C.2   134  ARG134      0.2260
    148  O         35.4290   -1.0290   -1.8500 O.2   134  ARG134     -0.2867
    149  CB        34.0230   -3.5610   -2.5910 C.3   134  ARG134      0.0307
    150  CG        32.6160   -2.9930   -2.5690 C.3   134  ARG134      0.0489
    151  CD        31.6980   -3.8460   -3.4330 C.3   134  ARG134      0.2205
    152  NE        31.2260   -3.1870   -4.6520 N.pl3 134  ARG134     -0.0865
    153  CZ        30.7090   -3.8260   -5.7090 C.cat 134  ARG134      0.5346
    154  NH1       30.6180   -5.1570   -5.7220 N.pl3 134  ARG134      0.1354
    155  NH2       30.2870   -3.1360   -6.7720 N.pl3 134  ARG134      0.1354
    156  N         38.8400    0.7180    2.8150 N.3   137  LEU137     -0.1245
    157  CA        40.1930    0.8890    2.2510 C.3   137  LEU137      0.1561
    158  C         41.2490    0.4290    3.2600 C.2   137  LEU137      0.2260
    159  O         41.0280    0.5310    4.4700 O.2   137  LEU137     -0.2867
    160  CB        40.3960    2.3580    1.8740 C.3   137  LEU137      0.0270
    161  CG        39.3560    2.8260    0.8700 C.3   137  LEU137      0.0019
    162  CD1       38.9020    4.2560    1.1350 C.3   137  LEU137      0.0001
    163  CD2       39.9290    2.6510   -0.5130 C.3   137  LEU137      0.0001
    164  N         33.6940    5.5400    0.7790 N.3   148  ASP148     -0.1239
    165  CA        32.5380    5.6430   -0.1160 C.3   148  ASP148      0.1674
    166  C         31.2120    5.9250    0.6060 C.2   148  ASP148      0.2266
    167  O         30.3960    5.0170    0.8600 O.2   148  ASP148     -0.2867
    168  CB        32.4380    4.4230   -1.0350 C.3   148  ASP148      0.1410
    169  CG        32.0990    4.8180   -2.4680 C.2   148  ASP148      0.3668
    170  OD1       31.1980    5.6980   -2.6480 O.co2 148  ASP148     -0.2456
    171  OD2       32.7550    4.2780   -3.3990 O.co2 148  ASP148     -0.2456
@<TRIPOS>BOND
     1    30    29    1
     2    29    28    1
     3    28    27    1
     4     2     1    1
     5     2     5    1
     6     2     3    1
     7     5     6    1
     8     3     4    2
     9    27    26    1
    10     9     7   am
    11     6     7    1
    12    26    23    1
    13     7     8    2
    14    45    44    2
    15    10    11    1
    16    23    22    1
    17    23    24    1
    18    22    20   am
    19    20    21    2
    20    20    19    1
    21    38    37    2
    22    19    18    2
    23    44    43    1
    24    18    12    1
    25    35    36    1
    26    42    43    1
    27    37    36    1
    28    12    11    1
    29    12    13    2
    30    11    14    1
    31    46    43    1
    32    46    47    1
    33    24    25    2
    34    24    31   am
    35    36    39    1
    36    34    33    2
    37    48    47    1
    38    48    49    1
    39    57    58    2
    40    57    56    1
    41    31    32    1
    42    14    15    1
    43    15    17    1
    44    15    16    1
    45    33    32    1
    46    56    55    1
    47    56    59    1
    48    39    41    1
    49    39    40    1
    50   155   153    1
    51    60    59    1
    52    60    61    1
    53   154   153    1
    54   153   152    2
    55    62    61    1
    56    62    63    1
    57   143   142   ar
    58   144   142   ar
    59    99    98    1
    60   142   141    1
    61    52    51    1
    62    52    53    2
    63   152   151    1
    64    96    98   ar
    65    96    94   ar
    66    51    50    1
    67    51    54    1
    68    98    97   ar
    69   141   138    1
    70    94    93   ar
    71   151   150    1
    72   171   169   ar
    73    97    95   ar
    74   138   139    1
    75   138   137    1
    76    93    95   ar
    77    93    92    1
    78    78    77    1
    79   140   139    2
    80   170   169   ar
    81   149   150    1
    82   149   146    1
    83   136   135    1
    84   111   110    2
    85   169   168    1
    86    92    89    1
    87   128   127    1
    88   128   129    1
    89   135   132    1
    90   148   147    2
    91   131   129   am
    92   131   132    1
    93    71    72    1
    94   127   117   am
    95   110   109    1
    96   110   115   am
    97   146   147    1
    98   146   145    1
    99    74    73    2
   100   109   112    1
   101   109   108    1
   102   129   130    2
   103    89    88    1
   104    89    90    1
   105   103   102    2
   106   118   117    2
   107    77    76    1
   108   132   133    1
   109   117   116    1
   110   168   165    1
   111   112   113    1
   112   134   133    2
   113    75    76    1
   114    75    72    1
   115   163   161    1
   116    72    73    1
   117   115   116    1
   118   116   119    1
   119    88    81   am
   120    73    79   am
   121   102   108   am
   122   102   101    1
   123   108   114    1
   124   100    90   am
   125   100   101    1
   126    90    91    2
   127   165   166    1
   128   165   164    1
   129    82    81    2
   130    81    80    1
   131   113   114    1
   132   166   167    2
   133   101   104    1
   134   161   162    1
   135   161   160    1
   136    79    80    1
   137   119   120    1
   138    80    83    1
   139   104   105    1
   140   120   121   ar
   141   120   122   ar
   142   121   123   ar
   143   122   124   ar
   144   160   157    1
   145   123   125   ar
   146   124   125   ar
   147   157   156    1
   148   157   158    1
   149   125   126    1
   150   105   106    1
   151   105   107    1
   152    70    68    1
   153    83    84    1
   154    69    68    1
   155    84    85    1
   156   158   159    2
   157    68    65    1
   158    85    87   ar
   159    85    86   ar
   160    65    66    1
   161    65    64    1
   162    66    67    2
