@<TRIPOS>MOLECULE
tmp/2w1kA00.pdb
 104 97 0 0 0
SMALL
GASTEIGER

@<TRIPOS>ATOM
      1  N         53.1660    8.3690  -11.6620 N.3    18  TYR18      -0.1227
      2  CA        53.3820    9.4520  -12.5180 C.3    18  TYR18       0.1736
      3  C         54.8610    9.3900  -12.9530 C.2    18  TYR18       0.2595
      4  O         55.2110    9.6180  -14.1450 O.2    18  TYR18      -0.2718
      5  CB        53.1050   10.7660  -11.7270 C.3    18  TYR18       0.0548
      6  CG        53.7840   12.0270  -12.3340 C.ar   18  TYR18      -0.0200
      7  CD1       53.2270   12.7040  -13.4260 C.ar   18  TYR18      -0.0009
      8  CD2       55.0170   12.4900  -11.8470 C.ar   18  TYR18      -0.0009
      9  CE1       53.8830   13.8230  -13.9890 C.ar   18  TYR18       0.0417
     10  CE2       55.6750   13.5680  -12.4210 C.ar   18  TYR18       0.0417
     11  CZ        55.0960   14.2650  -13.4540 C.ar   18  TYR18       0.1957
     12  OH        55.7520   15.4060  -13.9600 O.3    18  TYR18      -0.2866
     13  N         55.7370    9.1270  -12.0100 N.am   19  GLN19      -0.1979
     14  CA        57.1870    9.1140  -12.3510 C.3    19  GLN19       0.1601
     15  C         57.5350    7.8990  -13.2800 C.2    19  GLN19       0.2287
     16  O         58.4190    7.9680  -14.1730 O.2    19  GLN19      -0.2864
     17  CB        58.0670    9.0670  -11.0750 C.3    19  GLN19       0.0394
     18  CG        59.5520    9.3940  -11.3260 C.3    19  GLN19       0.0908
     19  CD        59.7910   10.7570  -11.9990 C.2    19  GLN19       0.2608
     20  OE1       60.3630   10.8060  -13.0930 O.2    19  GLN19      -0.2717
     21  NE2       59.3190   11.8530  -11.3820 N.am   19  GLN19      -0.0878
     22  N         56.3110    9.0670  -16.6720 N.3    22  GLN22      -0.1245
     23  CA        57.3290    9.9800  -17.1650 C.3    22  GLN22       0.1566
     24  C         58.4920    9.2360  -17.7950 C.2    22  GLN22       0.2260
     25  O         58.9100    9.4730  -18.9560 O.2    22  GLN22      -0.2867
     26  CB        57.7740   10.8870  -15.9770 C.3    22  GLN22       0.0367
     27  CG        56.6880   11.9380  -15.5800 C.3    22  GLN22       0.0905
     28  CD        56.6610   13.1140  -16.4930 C.2    22  GLN22       0.2608
     29  OE1       57.6840   13.8930  -16.5720 O.2    22  GLN22      -0.2717
     30  NE2       55.5260   13.3150  -17.1880 N.am   22  GLN22      -0.0878
     31  N         53.7420   13.6860  -25.5510 N.3    97  PRO97      -0.2102
     32  CA        53.8030   15.1510  -25.3740 C.3    97  PRO97       0.1504
     33  C         54.6540   15.5870  -24.1470 C.2    97  PRO97       0.2576
     34  O         54.1320   15.9980  -23.1280 O.2    97  PRO97      -0.2718
     35  CB        52.2710   15.5260  -25.2280 C.3    97  PRO97       0.0282
     36  CG        51.7380   14.2490  -24.4980 C.3    97  PRO97       0.0208
     37  CD        52.3450   13.1570  -25.3460 C.3    97  PRO97       0.0893
     38  N         55.9840   15.4370  -24.2310 N.am   98  LEU98      -0.1966
     39  CA        56.8300   15.8070  -23.0980 C.3    98  LEU98       0.1728
     40  C         57.5820   17.0760  -23.4510 C.2    98  LEU98       0.2616
     41  O         57.5640   17.4760  -24.5760 O.2    98  LEU98      -0.2715
     42  CB        57.8730   14.7190  -22.8100 C.3    98  LEU98       0.0311
     43  CG        57.3730   13.3260  -22.5640 C.3    98  LEU98       0.0022
     44  CD1       58.6320   12.3990  -22.3660 C.3    98  LEU98       0.0001
     45  CD2       56.5210   13.2930  -21.3130 C.3    98  LEU98       0.0001
     46  N         58.2600   17.6680  -22.4890 N.am   99  ASP99      -0.1971
     47  CA        59.0070   18.8510  -22.7380 C.3    99  ASP99       0.1709
     48  C         60.2400   18.6360  -23.6570 C.2    99  ASP99       0.2293
     49  O         60.6520   17.5410  -23.8800 O.2    99  ASP99      -0.2864
     50  CB        59.3360   19.4360  -21.4070 C.3    99  ASP99       0.1436
     51  CG        60.2110   18.4940  -20.5770 C.2    99  ASP99       0.3671
     52  OD1       60.9820   17.6520  -21.1730 O.co2  99  ASP99      -0.2456
     53  OD2       60.1230   18.6170  -19.3140 O.co2  99  ASP99      -0.2456
     54  N         48.5330   15.4130  -17.4590 N.3   135  ASN135     -0.1240
     55  CA        49.2750   14.1290  -17.4230 C.3   135  ASN135      0.1653
     56  C         49.1050   13.5030  -16.0770 C.2   135  ASN135      0.2266
     57  O         49.7900   12.5100  -15.7300 O.2   135  ASN135     -0.2867
     58  CB        50.7950   14.2520  -17.7030 C.3   135  ASN135      0.1155
     59  CG        51.5450   15.2260  -16.7680 C.2   135  ASN135      0.2627
     60  OD1       51.2100   15.4610  -15.6370 O.2   135  ASN135     -0.2716
     61  ND2       52.5710   15.7770  -17.2860 N.am  135  ASN135     -0.0877
     62  N         50.3770   17.4540  -13.6070 N.3   138  GLU138     -0.1245
     63  CA        50.6460   18.7310  -14.2460 C.3   138  GLU138      0.1567
     64  C         49.5920   18.9980  -15.3610 C.2   138  GLU138      0.2260
     65  O         49.1400   18.0630  -16.0610 O.2   138  GLU138     -0.2867
     66  CB        51.9780   18.6590  -14.9720 C.3   138  GLU138      0.0388
     67  CG        53.0990   18.2130  -14.0480 C.3   138  GLU138      0.1160
     68  CD        54.4120   18.0210  -14.7760 C.2   138  GLU138      0.3649
     69  OE1       54.4310   17.0880  -15.6260 O.co2 138  GLU138     -0.2457
     70  OE2       55.4260   18.7830  -14.5650 O.co2 138  GLU138     -0.2457
     71  N         49.4990   20.9780  -18.9250 N.3   140  VAL140     -0.1245
     72  CA        50.4490   21.6780  -19.8220 C.3   140  VAL140      0.1561
     73  C         49.5200   22.5420  -20.6370 C.2   140  VAL140      0.2260
     74  O         48.4600   22.0650  -21.0490 O.2   140  VAL140     -0.2867
     75  CB        51.1640   20.6960  -20.7470 C.3   140  VAL140      0.0252
     76  CG1       52.0560   21.4120  -21.7230 C.3   140  VAL140      0.0019
     77  CG2       51.9220   19.6380  -19.8700 C.3   140  VAL140      0.0019
     78  N         53.5180   24.8560  -27.1740 N.3   188  ARG188     -0.1245
     79  CA        53.4780   24.7600  -25.7660 C.3   188  ARG188      0.1563
     80  C         53.7880   26.0710  -25.1590 C.2   188  ARG188      0.2260
     81  O         54.7880   26.7240  -25.5510 O.2   188  ARG188     -0.2867
     82  CB        54.5130   23.7830  -25.2780 C.3   188  ARG188      0.0307
     83  CG        54.5110   23.7230  -23.7170 C.3   188  ARG188      0.0489
     84  CD        55.5720   22.5670  -23.2640 C.3   188  ARG188      0.2205
     85  NE        55.1300   21.2180  -23.6540 N.pl3 188  ARG188     -0.0865
     86  CZ        55.2370   20.1370  -22.8510 C.cat 188  ARG188      0.5346
     87  NH1       55.8980   20.2000  -21.6470 N.pl3 188  ARG188      0.1354
     88  NH2       54.7160   19.0000  -23.2190 N.pl3 188  ARG188      0.1354
     89  N         53.7020   24.8470  -18.1220 N.3   191  VAL191     -0.1245
     90  CA        53.3820   23.6090  -17.4490 C.3   191  VAL191      0.1561
     91  C         53.0100   24.1170  -16.0100 C.2   191  VAL191      0.2260
     92  O         53.7830   24.8350  -15.4000 O.2   191  VAL191     -0.2867
     93  CB        54.6290   22.6540  -17.3150 C.3   191  VAL191      0.0252
     94  CG1       54.2930   21.4590  -16.4660 C.3   191  VAL191      0.0019
     95  CG2       55.1150   22.1610  -18.7000 C.3   191  VAL191      0.0019
     96  N         52.0890   22.9130  -12.1150 N.3   193  GLN193     -0.1245
     97  CA        52.0630   21.8250  -11.1610 C.3   193  GLN193      0.1566
     98  C         50.7970   21.9480  -10.3800 C.2   193  GLN193      0.2260
     99  O         50.4980   23.0290   -9.8900 O.2   193  GLN193     -0.2867
    100  CB        53.2170   22.0210  -10.1240 C.3   193  GLN193      0.0367
    101  CG        54.6260   22.1470  -10.8420 C.3   193  GLN193      0.0905
    102  CD        54.9050   20.8140  -11.6370 C.2   193  GLN193      0.2608
    103  OE1       54.8540   19.7170  -11.0760 O.2   193  GLN193     -0.2717
    104  NE2       55.2710   20.9540  -12.8870 N.am  193  GLN193     -0.0878
@<TRIPOS>BOND
     1    78    79    1
     2    79    82    1
     3    79    80    1
     4    31    32    1
     5    31    37    1
     6    81    80    2
     7    32    35    1
     8    32    33    1
     9    37    36    1
    10    82    83    1
    11    35    36    1
    12    41    40    2
    13    38    33   am
    14    38    39    1
    15    33    34    2
    16    49    48    2
    17    83    84    1
    18    48    47    1
    19    85    84    1
    20    85    86    2
    21    40    39    1
    22    40    46   am
    23    88    86    1
    24    39    42    1
    25    86    87    1
    26    42    43    1
    27    47    46    1
    28    47    50    1
    29    43    44    1
    30    43    45    1
    31    76    75    1
    32    50    51    1
    33    52    51   ar
    34    74    73    2
    35    75    77    1
    36    75    72    1
    37    73    72    1
    38    51    53   ar
    39    72    71    1
    40    25    24    2
    41    95    93    1
    42    89    90    1
    43    24    23    1
    44    58    55    1
    45    58    59    1
    46    54    55    1
    47    90    93    1
    48    90    91    1
    49    55    56    1
    50    93    94    1
    51    61    59   am
    52    30    28   am
    53    23    22    1
    54    23    26    1
    55    59    60    2
    56    29    28    2
    57    28    27    1
    58    56    57    2
    59    65    64    2
    60    91    92    2
    61    26    27    1
    62    69    68   ar
    63    64    63    1
    64    66    63    1
    65    66    67    1
    66    68    70   ar
    67    68    67    1
    68    63    62    1
    69    16    15    2
    70     4     3    2
    71     9    11   ar
    72     9     7   ar
    73    12    11    1
    74    11    10   ar
    75     7     6   ar
    76    15    14    1
    77    20    19    2
    78     3     2    1
    79     3    13   am
    80   104   102   am
    81     2     5    1
    82     2     1    1
    83    10     8   ar
    84    14    13    1
    85    14    17    1
    86     6     8   ar
    87     6     5    1
    88    96    97    1
    89    19    21   am
    90    19    18    1
    91   102   103    2
    92   102   101    1
    93    18    17    1
    94    97    98    1
    95    97   100    1
    96   101   100    1
    97    98    99    2
