@<TRIPOS>MOLECULE
tmp/2w22A00.pdb
 216 206 0 0 0
SMALL
GASTEIGER

@<TRIPOS>ATOM
      1  N         26.5820  -16.0850  -16.7240 N.3    16  PHE16      -0.1241
      2  CA        27.3700  -15.0530  -17.3980 C.3    16  PHE16       0.1605
      3  C         27.7950  -13.9340  -16.4420 C.2    16  PHE16       0.2264
      4  O         26.9670  -13.3690  -15.7190 O.2    16  PHE16      -0.2867
      5  CB        26.5620  -14.4810  -18.5700 C.3    16  PHE16       0.0534
      6  CG        27.3410  -13.5480  -19.4600 C.ar   16  PHE16      -0.0203
      7  CD1       28.5150  -13.9710  -20.0790 C.ar   16  PHE16      -0.0042
      8  CD2       26.8880  -12.2500  -19.6940 C.ar   16  PHE16      -0.0042
      9  CE1       29.2260  -13.1210  -20.9150 C.ar   16  PHE16      -0.0003
     10  CE2       27.5930  -11.3880  -20.5300 C.ar   16  PHE16      -0.0003
     11  CZ        28.7660  -11.8230  -21.1430 C.ar   16  PHE16      -0.0000
     12  N         27.1540  -13.4670   -5.5920 N.3    29  TYR29      -0.1241
     13  CA        26.3660  -13.6520   -6.8030 C.3    29  TYR29       0.1605
     14  C         25.1450  -14.4430   -6.3490 C.2    29  TYR29       0.2264
     15  O         24.0160  -14.1510   -6.7430 O.2    29  TYR29      -0.2867
     16  CB        27.1710  -14.4460   -7.8380 C.3    29  TYR29       0.0534
     17  CG        26.4110  -14.8100   -9.0960 C.ar   29  TYR29      -0.0201
     18  CD1       25.5700  -15.9270   -9.1350 C.ar   29  TYR29      -0.0009
     19  CD2       26.5560  -14.0540  -10.2580 C.ar   29  TYR29      -0.0009
     20  CE1       24.9010  -16.2880  -10.3110 C.ar   29  TYR29       0.0417
     21  CE2       25.8940  -14.4020  -11.4340 C.ar   29  TYR29       0.0417
     22  CZ        25.0750  -15.5190  -11.4550 C.ar   29  TYR29       0.1957
     23  OH        24.4790  -15.8890  -12.6350 O.3    29  TYR29      -0.2866
     24  N         33.0470  -15.1450  -18.5680 N.3    56  LEU56      -0.1231
     25  CA        32.7800  -14.7810  -19.9570 C.3    56  LEU56       0.1693
     26  C         33.1680  -15.8740  -20.9440 C.2    56  LEU56       0.2592
     27  O         33.1270  -15.6580  -22.1560 O.2    56  LEU56      -0.2718
     28  CB        33.5500  -13.5080  -20.3250 C.3    56  LEU56       0.0284
     29  CG        33.4670  -12.3130  -19.3690 C.3    56  LEU56       0.0019
     30  CD1       34.3350  -11.1900  -19.9070 C.3    56  LEU56       0.0001
     31  CD2       32.0250  -11.8500  -19.2170 C.3    56  LEU56       0.0001
     32  N         33.5330  -17.0420  -20.4270 N.am   57  SER57      -0.1952
     33  CA        33.9770  -18.1510  -21.2680 C.3    57  SER57       0.1924
     34  C         32.8780  -19.0490  -21.8100 C.2    57  SER57       0.2314
     35  O         31.7190  -18.9750  -21.3920 O.2    57  SER57      -0.2863
     36  CB        34.9800  -19.0120  -20.4950 C.3    57  SER57       0.2116
     37  OG        36.0600  -18.2190  -20.0370 O.3    57  SER57      -0.2180
     38  N         22.5190  -20.9980  -12.3710 N.3   112  HIS112     -0.1226
     39  CA        21.7400  -19.8380  -12.7570 C.3   112  HIS112      0.1752
     40  C         22.1480  -19.4100  -14.1540 C.2   112  HIS112      0.2597
     41  O         23.3310  -19.3830  -14.4940 O.2   112  HIS112     -0.2718
     42  CB        21.9600  -18.6880  -11.7650 C.3   112  HIS112      0.0759
     43  CG        21.2820  -17.4100  -12.1580 C.ar  112  HIS112      0.0818
     44  ND1       21.9800  -16.3050  -12.5930 N.ar  112  HIS112     -0.2268
     45  CD2       19.9730  -17.0710  -12.1990 C.ar  112  HIS112      0.1154
     46  CE1       21.1290  -15.3370  -12.8870 C.ar  112  HIS112      0.1986
     47  NE2       19.9040  -15.7750  -12.6570 N.ar  112  HIS112     -0.2212
     48  N         21.1460  -19.0870  -14.9590 N.am  113  SER113     -0.1938
     49  CA        21.3490  -18.6540  -16.3280 C.3   113  SER113      0.2055
     50  C         22.3720  -19.5110  -17.0750 C.2   113  SER113      0.2642
     51  O         22.2090  -20.7250  -17.1380 O.2   113  SER113     -0.2714
     52  CB        21.7540  -17.1860  -16.3510 C.3   113  SER113      0.2130
     53  OG        21.4560  -16.6350  -17.6210 O.3   113  SER113     -0.2179
     54  N         23.4260  -18.9020  -17.6230 N.am  114  GLN114     -0.1976
     55  CA        24.4150  -19.6730  -18.3770 C.3   114  GLN114      0.1601
     56  C         24.9110  -20.9130  -17.6480 C.2   114  GLN114      0.2287
     57  O         25.2600  -21.9100  -18.2850 O.2   114  GLN114     -0.2864
     58  CB        25.6290  -18.8240  -18.7600 C.3   114  GLN114      0.0394
     59  CG        26.4830  -19.4730  -19.8600 C.3   114  GLN114      0.0908
     60  CD        27.8330  -18.7990  -20.0370 C.2   114  GLN114      0.2608
     61  OE1       28.0050  -17.6330  -19.6850 O.2   114  GLN114     -0.2717
     62  NE2       28.7980  -19.5290  -20.5950 N.am  114  GLN114     -0.0878
     63  N         19.1890  -16.5640  -25.8980 N.3   168  THR168     -0.1218
     64  CA        18.4110  -15.3680  -25.6030 C.3   168  THR168      0.1862
     65  C         18.5750  -14.3880  -26.7680 C.2   168  THR168      0.2287
     66  O         19.6690  -14.2390  -27.3120 O.2   168  THR168     -0.2866
     67  CB        18.8630  -14.7030  -24.2720 C.3   168  THR168      0.1770
     68  OG1       18.2090  -13.4370  -24.1250 O.3   168  THR168     -0.2211
     69  CG2       20.3780  -14.5070  -24.2390 C.3   168  THR168      0.0375
     70  N         18.6880  -11.4040  -26.6370 N.3   170  LEU170     -0.1231
     71  CA        19.4530  -10.2510  -26.1800 C.3   170  LEU170      0.1693
     72  C         20.7430  -10.1860  -26.9970 C.2   170  LEU170      0.2591
     73  O         21.2530   -9.1020  -27.2960 O.2   170  LEU170     -0.2718
     74  CB        19.7930  -10.3880  -24.6930 C.3   170  LEU170      0.0284
     75  CG        19.9700   -9.1090  -23.8610 C.3   170  LEU170      0.0019
     76  CD1       20.6950   -9.4540  -22.5640 C.3   170  LEU170      0.0001
     77  CD2       20.7570   -8.0700  -24.6310 C.3   170  LEU170      0.0001
     78  N         21.2680  -11.3520  -27.3640 N.am  171  VAL171     -0.1980
     79  CA        22.4920  -11.4050  -28.1570 C.3   171  VAL171      0.1595
     80  C         22.2210  -10.7910  -29.5250 C.2   171  VAL171      0.2287
     81  O         23.0970  -10.1640  -30.1240 O.2   171  VAL171     -0.2864
     82  CB        22.9980  -12.8560  -28.3270 C.3   171  VAL171      0.0276
     83  CG1       24.2420  -12.8800  -29.2070 C.3   171  VAL171      0.0022
     84  CG2       23.3170  -13.4520  -26.9640 C.3   171  VAL171      0.0022
     85  N         22.7730   -7.2060  -29.3720 N.3   174  VAL174     -0.1245
     86  CA        24.2070   -6.9530  -29.3610 C.3   174  VAL174      0.1561
     87  C         24.7510   -7.0260  -30.7870 C.2   174  VAL174      0.2260
     88  O         25.6490   -6.2700  -31.1520 O.2   174  VAL174     -0.2867
     89  CB        24.9460   -7.9800  -28.4760 C.3   174  VAL174      0.0252
     90  CG1       26.4510   -7.7880  -28.5910 C.3   174  VAL174      0.0019
     91  CG2       24.5030   -7.8220  -27.0240 C.3   174  VAL174      0.0019
     92  N         30.6470   -4.4490  -28.3720 N.3   183  LEU183     -0.1231
     93  CA        30.7150   -4.8070  -26.9600 C.3   183  LEU183      0.1693
     94  C         31.7360   -5.8740  -26.5750 C.2   183  LEU183      0.2591
     95  O         32.4990   -5.6810  -25.6320 O.2   183  LEU183     -0.2718
     96  CB        29.3270   -5.2290  -26.4670 C.3   183  LEU183      0.0284
     97  CG        29.1810   -5.4920  -24.9660 C.3   183  LEU183      0.0019
     98  CD1       29.6530   -4.2780  -24.1830 C.3   183  LEU183      0.0001
     99  CD2       27.7270   -5.8000  -24.6380 C.3   183  LEU183      0.0001
    100  N         31.7570   -6.9960  -27.2870 N.am  184  GLN184     -0.1979
    101  CA        32.6980   -8.0600  -26.9530 C.3   184  GLN184      0.1601
    102  C         34.1490   -7.6070  -27.0140 C.2   184  GLN184      0.2287
    103  O         34.9140   -7.8510  -26.0830 O.2   184  GLN184     -0.2864
    104  CB        32.5080   -9.2750  -27.8650 C.3   184  GLN184      0.0394
    105  CG        33.3810  -10.4600  -27.4600 C.3   184  GLN184      0.0908
    106  CD        33.0900  -11.7240  -28.2500 C.2   184  GLN184      0.2608
    107  OE1       31.9600  -12.2130  -28.2660 O.2   184  GLN184     -0.2717
    108  NE2       34.1160  -12.2640  -28.9020 N.am  184  GLN184     -0.0878
    109  N         34.9650   -5.3820  -24.0600 N.3   187  VAL187     -0.1231
    110  CA        35.1130   -6.1220  -22.8110 C.3   187  VAL187      0.1692
    111  C         36.4590   -6.8420  -22.7530 C.2   187  VAL187      0.2591
    112  O         37.0870   -6.9190  -21.6970 O.2   187  VAL187     -0.2718
    113  CB        33.9800   -7.1640  -22.6400 C.3   187  VAL187      0.0266
    114  CG1       34.1780   -7.9480  -21.3490 C.3   187  VAL187      0.0020
    115  CG2       32.6280   -6.4620  -22.6290 C.3   187  VAL187      0.0020
    116  N         36.8930   -7.3690  -23.8930 N.am  188  LEU188     -0.1980
    117  CA        38.1640   -8.0750  -23.9660 C.3   188  LEU188      0.1596
    118  C         39.3430   -7.1380  -23.7230 C.2   188  LEU188      0.2287
    119  O         40.2800   -7.4850  -23.0000 O.2   188  LEU188     -0.2864
    120  CB        38.3140   -8.7590  -25.3280 C.3   188  LEU188      0.0297
    121  CG        37.3780   -9.9450  -25.5810 C.3   188  LEU188      0.0022
    122  CD1       37.6510  -10.5470  -26.9520 C.3   188  LEU188      0.0001
    123  CD2       37.5910  -10.9890  -24.4990 C.3   188  LEU188      0.0001
    124  N         40.7120  -15.5040  -17.8780 N.3   208  LEU208     -0.1245
    125  CA        40.8900  -15.6570  -19.3110 C.3   208  LEU208      0.1561
    126  C         42.3410  -16.0460  -19.5670 C.2   208  LEU208      0.2260
    127  O         42.8780  -15.8050  -20.6450 O.2   208  LEU208     -0.2867
    128  CB        40.5500  -14.3480  -20.0320 C.3   208  LEU208      0.0270
    129  CG        39.0590  -13.9870  -20.0630 C.3   208  LEU208      0.0019
    130  CD1       38.8660  -12.5700  -20.5690 C.3   208  LEU208      0.0001
    131  CD2       38.3160  -14.9770  -20.9450 C.3   208  LEU208      0.0001
    132  N         44.0060  -17.3210  -22.8860 N.3   211  TRP211     -0.1241
    133  CA        44.2600  -16.4570  -24.0290 C.3   211  TRP211      0.1605
    134  C         45.5470  -15.6430  -23.8960 C.2   211  TRP211      0.2264
    135  O         45.9440  -14.9510  -24.8330 O.2   211  TRP211     -0.2867
    136  CB        43.0700  -15.5240  -24.2570 C.3   211  TRP211      0.0550
    137  CG        41.7890  -16.2610  -24.4550 C.ar  211  TRP211      0.0003
    138  CD1       40.8040  -16.4530  -23.5330 C.ar  211  TRP211      0.0946
    139  CD2       41.3660  -16.9350  -25.6440 C.ar  211  TRP211      0.0152
    140  NE1       39.7890  -17.2040  -24.0730 N.ar  211  TRP211     -0.2442
    141  CE2       40.1060  -17.5130  -25.3720 C.ar  211  TRP211      0.0810
    142  CE3       41.9260  -17.1040  -26.9200 C.ar  211  TRP211      0.0012
    143  CZ2       39.3940  -18.2540  -26.3220 C.ar  211  TRP211      0.0191
    144  CZ3       41.2180  -17.8400  -27.8680 C.ar  211  TRP211      0.0001
    145  CH2       39.9610  -18.4040  -27.5610 C.ar  211  TRP211      0.0015
    146  N         41.4060  -14.6160  -30.1270 N.3   233  VAL233     -0.1245
    147  CA        40.3330  -14.3800  -29.1700 C.3   233  VAL233      0.1561
    148  C         39.3040  -13.3440  -29.6230 C.2   233  VAL233      0.2260
    149  O         38.1210  -13.4620  -29.3170 O.2   233  VAL233     -0.2867
    150  CB        40.9060  -13.9570  -27.7960 C.3   233  VAL233      0.0252
    151  CG1       41.5300  -12.5700  -27.8870 C.3   233  VAL233      0.0019
    152  CG2       39.8140  -13.9960  -26.7450 C.3   233  VAL233      0.0019
    153  N         34.4690  -19.3800  -29.4210 N.3   238  ASP238     -0.1225
    154  CA        34.6650  -20.1270  -28.1820 C.3   238  ASP238      0.1805
    155  C         34.5280  -19.1230  -27.0410 C.2   238  ASP238      0.2598
    156  O         35.4860  -18.8290  -26.3250 O.2   238  ASP238     -0.2718
    157  CB        36.0530  -20.7700  -28.1900 C.3   238  ASP238      0.1424
    158  CG        36.3420  -21.5650  -26.9360 C.2   238  ASP238      0.3668
    159  OD1       35.4510  -22.3060  -26.4670 O.co2 238  ASP238     -0.2456
    160  OD2       37.4790  -21.4560  -26.4300 O.co2 238  ASP238     -0.2456
    161  N         33.3160  -18.5940  -26.8970 N.am  239  THR239     -0.1939
    162  CA        33.0000  -17.5880  -25.8920 C.3   239  THR239      0.2028
    163  C         31.5850  -17.8200  -25.3780 C.2   239  THR239      0.2642
    164  O         30.7990  -18.5320  -26.0010 O.2   239  THR239     -0.2714
    165  CB        33.0360  -16.1750  -26.5080 C.3   239  THR239      0.1808
    166  OG1       31.9320  -16.0300  -27.4130 O.3   239  THR239     -0.2208
    167  CG2       34.3280  -15.9570  -27.2970 C.3   239  THR239      0.0379
    168  N         31.2560  -17.2070  -24.2480 N.am  240  ALA240     -0.1963
    169  CA        29.9170  -17.3460  -23.6870 C.3   240  ALA240      0.1728
    170  C         28.8940  -16.7030  -24.6200 C.2   240  ALA240      0.2616
    171  O         27.8110  -17.2420  -24.8330 O.2   240  ALA240     -0.2715
    172  CB        29.8530  -16.6940  -22.3150 C.3   240  ALA240      0.0334
    173  N         29.2480  -15.5490  -25.1770 N.am  241  ARG241     -0.1977
    174  CA        28.3580  -14.8250  -26.0790 C.3   241  ARG241      0.1597
    175  C         27.8360  -15.7130  -27.2080 C.2   241  ARG241      0.2287
    176  O         26.6570  -15.6540  -27.5550 O.2   241  ARG241     -0.2864
    177  CB        29.0820  -13.6000  -26.6580 C.3   241  ARG241      0.0334
    178  CG        28.2570  -12.7450  -27.6270 C.3   241  ARG241      0.0492
    179  CD        28.4600  -13.1540  -29.0830 C.3   241  ARG241      0.2205
    180  NE        27.8660  -12.2020  -30.0240 N.pl3 241  ARG241     -0.0865
    181  CZ        28.2500  -10.9320  -30.1580 C.cat 241  ARG241      0.5346
    182  NH1       29.2360  -10.4520  -29.4100 N.pl3 241  ARG241      0.1354
    183  NH2       27.6440  -10.1370  -31.0340 N.pl3 241  ARG241      0.1354
    184  N         25.4940  -18.4380  -25.9080 N.3   244  LEU244     -0.1245
    185  CA        24.2560  -17.8250  -25.4270 C.3   244  LEU244      0.1561
    186  C         23.3250  -17.3570  -26.5470 C.2   244  LEU244      0.2260
    187  O         22.1250  -17.1880  -26.3290 O.2   244  LEU244     -0.2867
    188  CB        24.5820  -16.6460  -24.4950 C.3   244  LEU244      0.0270
    189  CG        25.2390  -16.9960  -23.1500 C.3   244  LEU244      0.0019
    190  CD1       25.7860  -15.7400  -22.5070 C.3   244  LEU244      0.0001
    191  CD2       24.2300  -17.6840  -22.2350 C.3   244  LEU244      0.0001
    192  N         16.5760  -10.3510  -19.0410 N.3   319  ILE319     -0.1231
    193  CA        17.8200  -10.7900  -19.6720 C.3   319  ILE319      0.1692
    194  C         17.5880  -11.9590  -20.6250 C.2   319  ILE319      0.2591
    195  O         18.1810  -12.0230  -21.7040 O.2   319  ILE319     -0.2718
    196  CB        18.8530  -11.2520  -18.6100 C.3   319  ILE319      0.0266
    197  CG1       19.1150  -10.1360  -17.5900 C.3   319  ILE319      0.0019
    198  CG2       20.1570  -11.6700  -19.2990 C.3   319  ILE319      0.0020
    199  CD1       19.8520   -8.9310  -18.1440 C.3   319  ILE319      0.0001
    200  N         16.7220  -12.8830  -20.2220 N.am  320  VAL320     -0.1980
    201  CA        16.4480  -14.0650  -21.0270 C.3   320  VAL320      0.1595
    202  C         14.9670  -14.2850  -21.3100 C.2   320  VAL320      0.2287
    203  O         14.1140  -14.0140  -20.4600 O.2   320  VAL320     -0.2864
    204  CB        17.0150  -15.3310  -20.3310 C.3   320  VAL320      0.0276
    205  CG1       16.6230  -16.5830  -21.1040 C.3   320  VAL320      0.0022
    206  CG2       18.5370  -15.2250  -20.2240 C.3   320  VAL320      0.0022
    207  N         15.6400  -11.7520  -13.7440 N.3   358  HIS358     -0.1241
    208  CA        16.9340  -12.4170  -13.8240 C.3   358  HIS358      0.1621
    209  C         17.8560  -12.2150  -12.6290 C.2   358  HIS358      0.2264
    210  O         18.5380  -13.1510  -12.2000 O.2   358  HIS358     -0.2867
    211  CB        17.6480  -11.9640  -15.0930 C.3   358  HIS358      0.0745
    212  CG        18.5420  -13.0020  -15.6870 C.ar  358  HIS358      0.0817
    213  ND1       18.0650  -14.2060  -16.1640 N.ar  358  HIS358     -0.2268
    214  CD2       19.8740  -13.0100  -15.9140 C.ar  358  HIS358      0.1154
    215  CE1       19.0670  -14.9050  -16.6610 C.ar  358  HIS358      0.1986
    216  NE2       20.1760  -14.2020  -16.5220 N.ar  358  HIS358     -0.2212
@<TRIPOS>BOND
     1    88    87    2
     2   183   181    1
     3    87    86    1
     4   181   180    2
     5   181   182    1
     6   146   147    1
     7    81    80    2
     8   180   179    1
     9   148   149    2
    10   148   147    1
    11    80    79    1
    12   153   154    1
    13    85    86    1
    14    86    89    1
    15    83    82    1
    16   147   150    1
    17   179   178    1
    18   108   106   am
    19    90    89    1
    20    89    91    1
    21    92    93    1
    22    82    79    1
    23    82    84    1
    24   107   106    2
    25   106   105    1
    26   157   154    1
    27   157   158    1
    28   154   155    1
    29    79    78    1
    30   151   150    1
    31   144   145   ar
    32   144   142   ar
    33   104   105    1
    34   104   101    1
    35   150   152    1
    36   178   177    1
    37   145   143   ar
    38   176   175    2
    39   166   165    1
    40    78    72   am
    41    66    65    2
    42   167   165    1
    43    73    72    2
    44   100   101    1
    45   100    94   am
    46   175   174    1
    47   155   161   am
    48   155   156    2
    49   102   101    1
    50   102   103    2
    51    72    71    1
    52    93    94    1
    53    93    96    1
    54   122   121    1
    55   158   159   ar
    56   158   160   ar
    57   142   139   ar
    58   161   162    1
    59    65    64    1
    60   177   174    1
    61    70    71    1
    62    94    95    2
    63   186   187    2
    64   186   185    1
    65   165   162    1
    66    96    97    1
    67   143   141   ar
    68    71    74    1
    69   174   173    1
    70   164   163    2
    71   184   185    1
    72    63    64    1
    73   162   163    1
    74   139   141   ar
    75   139   137   ar
    76    64    67    1
    77   121   120    1
    78   121   123    1
    79   185   188    1
    80   163   168   am
    81   141   140   ar
    82   120   117    1
    83   173   170   am
    84    97    99    1
    85    97    98    1
    86   171   170    2
    87   135   134    2
    88    74    75    1
    89    77    75    1
    90   170   169    1
    91   188   189    1
    92   137   136    1
    93   137   138   ar
    94    67    69    1
    95    67    68    1
    96   136   133    1
    97   168   169    1
    98   140   138   ar
    99   109   110    1
   100   133   134    1
   101   133   132    1
   102   117   116    1
   103   117   118    1
   104   116   111   am
   105    75    76    1
   106   118   119    2
   107   169   172    1
   108   189   190    1
   109   189   191    1
   110   110   111    1
   111   110   113    1
   112   111   112    2
   113   113   115    1
   114   113   114    1
   115    27    26    2
   116    34    35    2
   117    34    33    1
   118   195   194    2
   119   202   201    1
   120   202   203    2
   121    33    36    1
   122    33    32    1
   123    11     9   ar
   124    11    10   ar
   125   205   204    1
   126   201   204    1
   127   201   200    1
   128   131   129    1
   129    26    32   am
   130    26    25    1
   131     9     7   ar
   132   127   126    2
   133   194   200   am
   134   194   193    1
   135    62    60   am
   136   130   129    1
   137    10     8   ar
   138    36    37    1
   139   204   206    1
   140    28    25    1
   141    28    29    1
   142     7     6   ar
   143   129   128    1
   144    60    59    1
   145    60    61    2
   146   128   125    1
   147    25    24    1
   148    30    29    1
   149    59    58    1
   150     8     6   ar
   151   193   192    1
   152   193   196    1
   153   126   125    1
   154     6     5    1
   155    29    31    1
   156   125   124    1
   157   198   196    1
   158    58    55    1
   159   196   197    1
   160     5     2    1
   161    55    56    1
   162    55    54    1
   163    57    56    2
   164   199   197    1
   165    54    50   am
   166    53    52    1
   167     2     1    1
   168     2     3    1
   169    51    50    2
   170    50    49    1
   171   215   216   ar
   172   215   213   ar
   173   216   214   ar
   174     3     4    2
   175    52    49    1
   176    49    48    1
   177   213   212   ar
   178   214   212   ar
   179   212   211    1
   180   211   208    1
   181    48    40   am
   182    41    40    2
   183    40    39    1
   184   208   207    1
   185   208   209    1
   186    46    47   ar
   187    46    44   ar
   188    39    38    1
   189    39    42    1
   190    47    45   ar
   191    23    22    1
   192   209   210    2
   193    44    43   ar
   194    45    43   ar
   195    43    42    1
   196    22    21   ar
   197    22    20   ar
   198    21    19   ar
   199    20    18   ar
   200    19    17   ar
   201    18    17   ar
   202    17    16    1
   203    16    13    1
   204    13    14    1
   205    13    12    1
   206    15    14    2
