@<TRIPOS>MOLECULE
tmp/2w22A01.pdb
 168 161 0 0 0
SMALL
GASTEIGER

@<TRIPOS>ATOM
      1  N         26.5820  -16.0850  -16.7240 N.3    16  PHE16      -0.1227
      2  CA        27.3700  -15.0530  -17.3980 C.3    16  PHE16       0.1736
      3  C         27.7950  -13.9340  -16.4420 C.2    16  PHE16       0.2596
      4  O         26.9670  -13.3690  -15.7190 O.2    16  PHE16      -0.2718
      5  CB        26.5620  -14.4810  -18.5700 C.3    16  PHE16       0.0547
      6  CG        27.3410  -13.5480  -19.4600 C.ar   16  PHE16      -0.0202
      7  CD1       28.5150  -13.9710  -20.0790 C.ar   16  PHE16      -0.0042
      8  CD2       26.8880  -12.2500  -19.6940 C.ar   16  PHE16      -0.0042
      9  CE1       29.2260  -13.1210  -20.9150 C.ar   16  PHE16      -0.0003
     10  CE2       27.5930  -11.3880  -20.5300 C.ar   16  PHE16      -0.0003
     11  CZ        28.7660  -11.8230  -21.1430 C.ar   16  PHE16      -0.0000
     12  N         29.0940  -13.6330  -16.4580 N.am   17  THR17      -0.1953
     13  CA        29.7250  -12.6070  -15.6250 C.3    17  THR17       0.1897
     14  C         29.8450  -12.9940  -14.1530 C.2    17  THR17       0.2313
     15  O         30.4770  -12.2800  -13.3750 O.2    17  THR17      -0.2863
     16  CB        28.9920  -11.2370  -15.6870 C.3    17  THR17       0.1794
     17  OG1       27.8730  -11.2410  -14.7920 O.3    17  THR17      -0.2208
     18  CG2       28.5250  -10.9400  -17.1020 C.3    17  THR17       0.0378
     19  N         30.7740  -14.2030  -10.5080 N.3    19  TRP19      -0.1241
     20  CA        32.0480  -14.1200   -9.7860 C.3    19  TRP19       0.1605
     21  C         32.0460  -15.0110   -8.5420 C.2    19  TRP19       0.2264
     22  O         30.9880  -15.3630   -8.0220 O.2    19  TRP19      -0.2867
     23  CB        32.3020  -12.6640   -9.3850 C.3    19  TRP19       0.0550
     24  CG        31.1840  -12.1010   -8.5660 C.ar   19  TRP19       0.0003
     25  CD1       31.0690  -12.1290   -7.2060 C.ar   19  TRP19       0.0946
     26  CD2       29.9670  -11.5260   -9.0590 C.ar   19  TRP19       0.0152
     27  NE1       29.8560  -11.6140   -6.8220 N.ar   19  TRP19      -0.2442
     28  CE2       29.1580  -11.2350   -7.9410 C.ar   19  TRP19       0.0810
     29  CE3       29.4780  -11.2290  -10.3420 C.ar   19  TRP19       0.0012
     30  CZ2       27.8830  -10.6650   -8.0600 C.ar   19  TRP19       0.0191
     31  CZ3       28.2130  -10.6620  -10.4620 C.ar   19  TRP19       0.0001
     32  CH2       27.4300  -10.3860   -9.3250 C.ar   19  TRP19       0.0015
     33  N         27.1540  -13.4670   -5.5920 N.3    29  TYR29      -0.1241
     34  CA        26.3660  -13.6520   -6.8030 C.3    29  TYR29       0.1605
     35  C         25.1450  -14.4430   -6.3490 C.2    29  TYR29       0.2264
     36  O         24.0160  -14.1510   -6.7430 O.2    29  TYR29      -0.2867
     37  CB        27.1710  -14.4460   -7.8380 C.3    29  TYR29       0.0534
     38  CG        26.4110  -14.8100   -9.0960 C.ar   29  TYR29      -0.0201
     39  CD1       25.5700  -15.9270   -9.1350 C.ar   29  TYR29      -0.0009
     40  CD2       26.5560  -14.0540  -10.2580 C.ar   29  TYR29      -0.0009
     41  CE1       24.9010  -16.2880  -10.3110 C.ar   29  TYR29       0.0417
     42  CE2       25.8940  -14.4020  -11.4340 C.ar   29  TYR29       0.0417
     43  CZ        25.0750  -15.5190  -11.4550 C.ar   29  TYR29       0.1957
     44  OH        24.4790  -15.8890  -12.6350 O.3    29  TYR29      -0.2866
     45  N         22.5190  -20.9980  -12.3710 N.3   112  HIS112     -0.1241
     46  CA        21.7400  -19.8380  -12.7570 C.3   112  HIS112      0.1621
     47  C         22.1480  -19.4100  -14.1540 C.2   112  HIS112      0.2264
     48  O         23.3310  -19.3830  -14.4940 O.2   112  HIS112     -0.2867
     49  CB        21.9600  -18.6880  -11.7650 C.3   112  HIS112      0.0745
     50  CG        21.2820  -17.4100  -12.1580 C.ar  112  HIS112      0.0817
     51  ND1       21.9800  -16.3050  -12.5930 N.ar  112  HIS112     -0.2268
     52  CD2       19.9730  -17.0710  -12.1990 C.ar  112  HIS112      0.1154
     53  CE1       21.1290  -15.3370  -12.8870 C.ar  112  HIS112      0.1986
     54  NE2       19.9040  -15.7750  -12.6570 N.ar  112  HIS112     -0.2212
     55  N         18.6880  -11.4040  -26.6370 N.3   170  LEU170     -0.1245
     56  CA        19.4530  -10.2510  -26.1800 C.3   170  LEU170      0.1561
     57  C         20.7430  -10.1860  -26.9970 C.2   170  LEU170      0.2260
     58  O         21.2530   -9.1020  -27.2960 O.2   170  LEU170     -0.2867
     59  CB        19.7930  -10.3880  -24.6930 C.3   170  LEU170      0.0270
     60  CG        19.9700   -9.1090  -23.8610 C.3   170  LEU170      0.0019
     61  CD1       20.6950   -9.4540  -22.5640 C.3   170  LEU170      0.0001
     62  CD2       20.7570   -8.0700  -24.6310 C.3   170  LEU170      0.0001
     63  N         20.3620   -8.2790  -30.1240 N.3   173  MET173     -0.1230
     64  CA        20.4580   -6.8280  -29.9930 C.3   173  MET173      0.1702
     65  C         21.9320   -6.4260  -30.0430 C.2   173  MET173      0.2592
     66  O         22.2980   -5.4340  -30.6790 O.2   173  MET173     -0.2718
     67  CB        19.8390   -6.3470  -28.6800 C.3   173  MET173      0.0401
     68  CG        20.0870   -4.8630  -28.4150 C.3   173  MET173      0.0596
     69  SD        19.2560   -4.2370  -26.9480 S.3   173  MET173     -0.1393
     70  CE        20.1240   -5.0710  -25.6780 C.3   173  MET173      0.0692
     71  N         22.7730   -7.2060  -29.3720 N.am  174  VAL174     -0.1980
     72  CA        24.2070   -6.9530  -29.3610 C.3   174  VAL174      0.1595
     73  C         24.7510   -7.0260  -30.7870 C.2   174  VAL174      0.2287
     74  O         25.6490   -6.2700  -31.1520 O.2   174  VAL174     -0.2864
     75  CB        24.9460   -7.9800  -28.4760 C.3   174  VAL174      0.0276
     76  CG1       26.4510   -7.7880  -28.5910 C.3   174  VAL174      0.0022
     77  CG2       24.5030   -7.8220  -27.0240 C.3   174  VAL174      0.0022
     78  N         24.0430   -3.6630  -32.4280 N.3   177  THR177     -0.1218
     79  CA        24.9050   -2.6310  -31.8710 C.3   177  THR177      0.1862
     80  C         26.3620   -2.8070  -32.3060 C.2   177  THR177      0.2287
     81  O         27.1740   -1.8890  -32.1710 O.2   177  THR177     -0.2866
     82  CB        24.8430   -2.6470  -30.3340 C.3   177  THR177      0.1770
     83  OG1       23.4880   -2.4630  -29.9130 O.3   177  THR177     -0.2211
     84  CG2       25.6970   -1.5370  -29.7530 C.3   177  THR177      0.0375
     85  N         29.3480    0.3130  -31.7480 N.3   181  PHE181     -0.1241
     86  CA        29.9830   -0.1270  -30.5110 C.3   181  PHE181      0.1605
     87  C         30.0570   -1.6590  -30.4320 C.2   181  PHE181      0.2264
     88  O         29.0380   -2.3230  -30.2310 O.2   181  PHE181     -0.2867
     89  CB        29.1910    0.4030  -29.3130 C.3   181  PHE181      0.0534
     90  CG        29.7670    0.0190  -27.9790 C.ar  181  PHE181     -0.0203
     91  CD1       28.9630    0.0180  -26.8420 C.ar  181  PHE181     -0.0042
     92  CD2       31.1120   -0.3160  -27.8490 C.ar  181  PHE181     -0.0042
     93  CE1       29.4880   -0.3090  -25.5960 C.ar  181  PHE181     -0.0003
     94  CE2       31.6490   -0.6440  -26.6080 C.ar  181  PHE181     -0.0003
     95  CZ        30.8350   -0.6410  -25.4780 C.ar  181  PHE181     -0.0000
     96  N         30.6470   -4.4490  -28.3720 N.3   183  LEU183     -0.1245
     97  CA        30.7150   -4.8070  -26.9600 C.3   183  LEU183      0.1561
     98  C         31.7360   -5.8740  -26.5750 C.2   183  LEU183      0.2260
     99  O         32.4990   -5.6810  -25.6320 O.2   183  LEU183     -0.2867
    100  CB        29.3270   -5.2290  -26.4670 C.3   183  LEU183      0.0270
    101  CG        29.1810   -5.4920  -24.9660 C.3   183  LEU183      0.0019
    102  CD1       29.6530   -4.2780  -24.1830 C.3   183  LEU183      0.0001
    103  CD2       27.7270   -5.8000  -24.6380 C.3   183  LEU183      0.0001
    104  N         18.7970   -1.5650  -15.0420 N.3   290  PHE290     -0.1241
    105  CA        19.5840   -1.9280  -16.2110 C.3   290  PHE290      0.1605
    106  C         18.7610   -2.7150  -17.2290 C.2   290  PHE290      0.2264
    107  O         18.6900   -2.3440  -18.3990 O.2   290  PHE290     -0.2867
    108  CB        20.8120   -2.7490  -15.8060 C.3   290  PHE290      0.0534
    109  CG        21.6230   -3.2280  -16.9780 C.ar  290  PHE290     -0.0203
    110  CD1       22.4330   -2.3450  -17.6870 C.ar  290  PHE290     -0.0042
    111  CD2       21.5260   -4.5480  -17.4140 C.ar  290  PHE290     -0.0042
    112  CE1       23.1320   -2.7660  -18.8180 C.ar  290  PHE290     -0.0003
    113  CE2       22.2200   -4.9790  -18.5450 C.ar  290  PHE290     -0.0003
    114  CZ        23.0240   -4.0860  -19.2490 C.ar  290  PHE290     -0.0000
    115  N         17.6580   -1.0400  -20.8360 N.3   294  VAL294     -0.1231
    116  CA        18.5180   -1.5480  -21.8950 C.3   294  VAL294      0.1692
    117  C         18.1390   -2.8680  -22.5710 C.2   294  VAL294      0.2592
    118  O         18.3010   -3.0050  -23.7840 O.2   294  VAL294     -0.2718
    119  CB        19.9700   -1.6820  -21.3730 C.3   294  VAL294      0.0266
    120  CG1       20.8950   -2.1370  -22.4990 C.3   294  VAL294      0.0020
    121  CG2       20.4370   -0.3530  -20.7950 C.3   294  VAL294      0.0020
    122  N         17.6250   -3.8290  -21.8070 N.am  295  CYS295     -0.1970
    123  CA        17.3120   -5.1470  -22.3660 C.3   295  CYS295      0.1712
    124  C         15.8440   -5.5350  -22.6250 C.2   295  CYS295      0.2296
    125  O         15.5060   -6.0170  -23.7110 O.2   295  CYS295     -0.2864
    126  CB        17.9580   -6.2170  -21.4760 C.3   295  CYS295      0.0983
    127  SG        19.6800   -5.8580  -21.0110 S.3   295  CYS295     -0.0798
    128  N         16.5760  -10.3510  -19.0410 N.3   319  ILE319     -0.1245
    129  CA        17.8200  -10.7900  -19.6720 C.3   319  ILE319      0.1561
    130  C         17.5880  -11.9590  -20.6250 C.2   319  ILE319      0.2260
    131  O         18.1810  -12.0230  -21.7040 O.2   319  ILE319     -0.2867
    132  CB        18.8530  -11.2520  -18.6100 C.3   319  ILE319      0.0252
    133  CG1       19.1150  -10.1360  -17.5900 C.3   319  ILE319      0.0019
    134  CG2       20.1570  -11.6700  -19.2990 C.3   319  ILE319      0.0019
    135  CD1       19.8520   -8.9310  -18.1440 C.3   319  ILE319      0.0001
    136  N         15.6400  -11.7520  -13.7440 N.3   358  HIS358     -0.1226
    137  CA        16.9340  -12.4170  -13.8240 C.3   358  HIS358      0.1752
    138  C         17.8560  -12.2150  -12.6290 C.2   358  HIS358      0.2595
    139  O         18.5380  -13.1510  -12.2000 O.2   358  HIS358     -0.2718
    140  CB        17.6480  -11.9640  -15.0930 C.3   358  HIS358      0.0759
    141  CG        18.5420  -13.0020  -15.6870 C.ar  358  HIS358      0.0818
    142  ND1       18.0650  -14.2060  -16.1640 N.ar  358  HIS358     -0.2268
    143  CD2       19.8740  -13.0100  -15.9140 C.ar  358  HIS358      0.1154
    144  CE1       19.0670  -14.9050  -16.6610 C.ar  358  HIS358      0.1986
    145  NE2       20.1760  -14.2020  -16.5220 N.ar  358  HIS358     -0.2212
    146  N         17.8830  -10.9960  -12.0980 N.am  359  LEU359     -0.1980
    147  CA        18.7450  -10.6810  -10.9660 C.3   359  LEU359      0.1596
    148  C         18.1080  -10.9000   -9.6010 C.2   359  LEU359      0.2287
    149  O         18.7960  -11.2690   -8.6480 O.2   359  LEU359     -0.2864
    150  CB        19.2370   -9.2370  -11.0700 C.3   359  LEU359      0.0297
    151  CG        19.9940   -8.9010  -12.3560 C.3   359  LEU359      0.0022
    152  CD1       20.5410   -7.4810  -12.2940 C.3   359  LEU359      0.0001
    153  CD2       21.1180   -9.8880  -12.5350 C.3   359  LEU359      0.0001
    154  N         18.3500  -14.3420   -7.7540 N.3   362  ILE362     -0.1245
    155  CA        19.6010  -14.6980   -7.0790 C.3   362  ILE362      0.1561
    156  C         19.9390  -13.6550   -6.0080 C.2   362  ILE362      0.2260
    157  O         21.0100  -13.6880   -5.3940 O.2   362  ILE362     -0.2867
    158  CB        20.7980  -14.8290   -8.0620 C.3   362  ILE362      0.0252
    159  CG1       20.8930  -13.5960   -8.9590 C.3   362  ILE362      0.0019
    160  CG2       20.6570  -16.1040   -8.8780 C.3   362  ILE362      0.0019
    161  CD1       22.1500  -13.5600   -9.8090 C.3   362  ILE362      0.0001
    162  N         20.5670  -10.4700   -6.3630 N.3   364  VAL364     -0.1245
    163  CA        21.3960   -9.3480   -6.7820 C.3   364  VAL364      0.1561
    164  C         20.5590   -8.0780   -6.8630 C.2   364  VAL364      0.2260
    165  O         21.0700   -6.9680   -6.6990 O.2   364  VAL364     -0.2867
    166  CB        22.0740   -9.6370   -8.1350 C.3   364  VAL364      0.0252
    167  CG1       22.7550   -8.3850   -8.6670 C.3   364  VAL364      0.0019
    168  CG2       23.0970  -10.7460   -7.9520 C.3   364  VAL364      0.0019
@<TRIPOS>BOND
     1    78    79    1
     2    80    81    2
     3    80    79    1
     4    79    82    1
     5    85    86    1
     6    74    73    2
     7    73    72    1
     8    66    65    2
     9    86    87    1
    10    86    89    1
    11    87    88    2
    12    82    83    1
    13    82    84    1
    14    63    64    1
    15    65    64    1
    16    65    71   am
    17    64    67    1
    18    71    72    1
    19    72    75    1
    20    89    90    1
    21    67    68    1
    22    76    75    1
    23    75    77    1
    24    68    69    1
    25    96    97    1
    26    90    92   ar
    27    90    91   ar
    28    92    94   ar
    29    58    57    2
    30    57    56    1
    31    97    98    1
    32    97   100    1
    33    69    70    1
    34    91    93   ar
    35    55    56    1
    36    94    95   ar
    37    98    99    2
    38   100   101    1
    39    56    59    1
    40    93    95   ar
    41   101   103    1
    42   101   102    1
    43    59    60    1
    44    62    60    1
    45    60    61    1
    46   118   117    2
    47   125   124    2
    48   124   123    1
    49   117   116    1
    50   117   122   am
    51   120   119    1
    52   123   122    1
    53   123   126    1
    54   116   119    1
    55   116   115    1
    56   131   130    2
    57   126   127    1
    58   119   121    1
    59    11     9   ar
    60    11    10   ar
    61     9     7   ar
    62   130   129    1
    63    10     8   ar
    64     7     6   ar
    65     8     6   ar
    66   129   128    1
    67   129   132    1
    68     6     5    1
    69   134   132    1
    70   114   112   ar
    71   114   113   ar
    72   112   110   ar
    73   132   133    1
    74     5     2    1
    75   113   111   ar
    76   107   106    2
    77   135   133    1
    78   110   109   ar
    79   111   109   ar
    80     2     1    1
    81     2     3    1
    82   106   105    1
    83    18    16    1
    84   109   108    1
    85   144   145   ar
    86   144   142   ar
    87   145   143   ar
    88    12     3   am
    89    12    13    1
    90     3     4    2
    91   105   108    1
    92   105   104    1
    93   142   141   ar
    94   143   141   ar
    95   141   140    1
    96    16    13    1
    97    16    17    1
    98    13    14    1
    99   140   137    1
   100    48    47    2
   101    47    46    1
   102    14    15    2
   103   137   136    1
   104   137   138    1
   105    53    54   ar
   106    53    51   ar
   107    46    45    1
   108    46    49    1
   109    54    52   ar
   110    44    43    1
   111   138   139    2
   112   138   146   am
   113    51    50   ar
   114   153   151    1
   115   151   152    1
   116   151   150    1
   117    52    50   ar
   118    50    49    1
   119   146   147    1
   120    43    42   ar
   121    43    41   ar
   122    42    40   ar
   123   150   147    1
   124   147   148    1
   125    19    20    1
   126    31    29   ar
   127    31    32   ar
   128    29    26   ar
   129    41    39   ar
   130    40    38   ar
   131   161   159    1
   132    20    23    1
   133    20    21    1
   134   148   149    2
   135    23    24    1
   136    32    30   ar
   137    39    38   ar
   138    38    37    1
   139    26    24   ar
   140    26    28   ar
   141   159   158    1
   142   160   158    1
   143   167   166    1
   144    24    25   ar
   145    21    22    2
   146   166   168    1
   147   166   163    1
   148   158   155    1
   149    30    28   ar
   150    28    27   ar
   151    37    34    1
   152   154   155    1
   153    25    27   ar
   154   155   156    1
   155   164   163    1
   156   164   165    2
   157    34    35    1
   158    34    33    1
   159   163   162    1
   160    36    35    2
   161   156   157    2
