@<TRIPOS>MOLECULE
tmp/2w27A00.pdb
 143 132 0 0 0
SMALL
GASTEIGER

@<TRIPOS>ATOM
      1  N         17.2770   54.4060   87.4750 N.3    18  GLN18      -0.1245
      2  CA        16.8410   53.9440   86.1400 C.3    18  GLN18       0.1566
      3  C         17.8410   52.9650   85.5450 C.2    18  GLN18       0.2260
      4  O         19.0240   53.2650   85.4030 O.2    18  GLN18      -0.2867
      5  CB        16.5670   55.0840   85.1380 C.3    18  GLN18       0.0367
      6  CG        15.7700   54.5680   83.9140 C.3    18  GLN18       0.0905
      7  CD        15.2710   55.6500   82.9710 C.2    18  GLN18       0.2608
      8  OE1       15.5810   56.8190   83.1420 O.2    18  GLN18      -0.2717
      9  NE2       14.4960   55.2510   81.9490 N.am   18  GLN18      -0.0878
     10  N         21.3540   54.4640   86.5030 N.3    32  GLU32      -0.1245
     11  CA        21.6410   55.8840   86.7180 C.3    32  GLU32       0.1567
     12  C         20.9680   56.2720   88.0080 C.2    32  GLU32       0.2260
     13  O         19.8000   55.9550   88.2190 O.2    32  GLU32      -0.2867
     14  CB        21.1140   56.7690   85.5820 C.3    32  GLU32       0.0388
     15  CG        21.3340   58.2830   85.7950 C.3    32  GLU32       0.1160
     16  CD        20.9400   59.1260   84.5860 C.2    32  GLU32       0.3649
     17  OE1       21.4620   60.2570   84.4490 O.co2  32  GLU32      -0.2457
     18  OE2       20.1160   58.6590   83.7630 O.co2  32  GLU32      -0.2457
     19  N         19.2590   58.8370   90.3070 N.3    34  LEU34      -0.1245
     20  CA        18.4330   60.0420   90.1840 C.3    34  LEU34       0.1561
     21  C         17.9600   60.4730   91.5760 C.2    34  LEU34       0.2260
     22  O         17.8900   59.6490   92.4770 O.2    34  LEU34      -0.2867
     23  CB        17.2600   59.7750   89.2420 C.3    34  LEU34       0.0270
     24  CG        17.7110   59.5470   87.7960 C.3    34  LEU34       0.0019
     25  CD1       16.6930   58.7370   87.0190 C.3    34  LEU34       0.0001
     26  CD2       17.9760   60.8650   87.0970 C.3    34  LEU34       0.0001
     27  N         15.5010   62.1490   94.4810 N.3    36  ARG36      -0.1245
     28  CA        14.0960   62.2670   94.8190 C.3    36  ARG36       0.1563
     29  C         13.9320   62.6140   96.2980 C.2    36  ARG36       0.2260
     30  O         14.8190   62.3520   97.1090 O.2    36  ARG36      -0.2867
     31  CB        13.3700   60.9490   94.5060 C.3    36  ARG36       0.0307
     32  CG        13.4540   60.4580   93.0470 C.3    36  ARG36       0.0489
     33  CD        12.4970   61.2140   92.1090 C.3    36  ARG36       0.2205
     34  NE        12.4870   60.6610   90.7470 N.pl3  36  ARG36      -0.0865
     35  CZ        13.3940   60.9240   89.7890 C.cat  36  ARG36       0.5346
     36  NH1       13.2720   60.3570   88.5860 N.pl3  36  ARG36       0.1354
     37  NH2       14.4270   61.7390   90.0120 N.pl3  36  ARG36       0.1354
     38  N         11.0210   65.0030   91.9800 N.3    45  SER45      -0.1217
     39  CA        12.4170   65.0980   91.5820 C.3    45  SER45       0.1889
     40  C         13.1540   66.2910   92.1780 C.2    45  SER45       0.2288
     41  O         12.6170   67.3950   92.2350 O.2    45  SER45      -0.2866
     42  CB        12.5400   65.1920   90.0540 C.3    45  SER45       0.2089
     43  OG        12.2870   63.9470   89.4310 O.3    45  SER45      -0.2183
     44  N         25.4100   61.4860   87.9220 N.3    87  ASN87      -0.1240
     45  CA        25.4390   62.8250   87.3990 C.3    87  ASN87       0.1653
     46  C         26.3510   63.6970   88.2330 C.2    87  ASN87       0.2266
     47  O         26.2220   63.7510   89.4580 O.2    87  ASN87      -0.2867
     48  CB        24.0220   63.3780   87.3440 C.3    87  ASN87       0.1155
     49  CG        23.2410   62.7710   86.2180 C.2    87  ASN87       0.2627
     50  OD1       22.6790   61.6800   86.3460 O.2    87  ASN87      -0.2716
     51  ND2       23.2490   63.4580   85.0690 N.am   87  ASN87      -0.0877
     52  N         28.6730   60.9150   84.7120 N.3   121  GLU121     -0.1245
     53  CA        28.0380   61.6540   83.6450 C.3   121  GLU121      0.1567
     54  C         28.3700   63.1330   83.7380 C.2   121  GLU121      0.2260
     55  O         27.8290   63.8390   84.5920 O.2   121  GLU121     -0.2867
     56  CB        26.5350   61.4440   83.6890 C.3   121  GLU121      0.0388
     57  CG        26.1040   60.0180   83.3290 C.3   121  GLU121      0.1160
     58  CD        24.5870   59.8800   83.1000 C.2   121  GLU121      0.3649
     59  OE1       23.8980   60.9060   82.8940 O.co2 121  GLU121     -0.2457
     60  OE2       24.0670   58.7440   83.1180 O.co2 121  GLU121     -0.2457
     61  N         27.4280   64.0220   78.4020 N.3   151  ASP151     -0.1225
     62  CA        25.9840   64.2470   78.2630 C.3   151  ASP151      0.1805
     63  C         25.6510   65.1720   77.1030 C.2   151  ASP151      0.2597
     64  O         26.5090   65.8690   76.5840 O.2   151  ASP151     -0.2718
     65  CB        25.4380   64.9340   79.5340 C.3   151  ASP151      0.1424
     66  CG        24.4940   64.0490   80.3450 C.2   151  ASP151      0.3668
     67  OD1       23.9840   63.0550   79.7740 O.co2 151  ASP151     -0.2456
     68  OD2       24.2410   64.3580   81.5490 O.co2 151  ASP151     -0.2456
     69  N         24.3720   65.2170   76.7490 N.am  152  ASN152     -0.1974
     70  CA        23.8810   66.0900   75.6900 C.3   152  ASN152      0.1688
     71  C         24.8090   66.1050   74.4870 C.2   152  ASN152      0.2292
     72  O         25.0580   67.1490   73.8810 O.2   152  ASN152     -0.2864
     73  CB        23.6740   67.5070   76.2200 C.3   152  ASN152      0.1181
     74  CG        22.6370   67.5730   77.3310 C.2   152  ASN152      0.2629
     75  OD1       22.1780   66.5460   77.8470 O.2   152  ASN152     -0.2716
     76  ND2       22.2670   68.7900   77.7120 N.am  152  ASN152     -0.0877
     77  N         14.9500   62.7160   72.2200 N.3   176  GLN176     -0.1245
     78  CA        13.7870   63.6100   72.1470 C.3   176  GLN176      0.1566
     79  C         13.8650   64.3750   70.8260 C.2   176  GLN176      0.2260
     80  O         12.8550   64.6890   70.1840 O.2   176  GLN176     -0.2867
     81  CB        13.7930   64.5850   73.3060 C.3   176  GLN176      0.0367
     82  CG        13.5520   63.9460   74.6540 C.3   176  GLN176      0.0905
     83  CD        13.9560   64.8680   75.7780 C.2   176  GLN176      0.2608
     84  OE1       15.1550   65.0930   76.0250 O.2   176  GLN176     -0.2717
     85  NE2       12.9650   65.4200   76.4610 N.am  176  GLN176     -0.0878
     86  N         19.6030   57.6730   75.2340 N.3   203  GLU203     -0.1231
     87  CA        18.6600   57.9040   76.3470 C.3   203  GLU203      0.1699
     88  C         17.3860   58.6400   75.9160 C.2   203  GLU203      0.2592
     89  O         17.2500   59.0630   74.7760 O.2   203  GLU203     -0.2718
     90  CB        19.3420   58.6510   77.5130 C.3   203  GLU203      0.0402
     91  CG        19.9170   60.0260   77.1790 C.3   203  GLU203      0.1161
     92  CD        19.9830   60.9570   78.3900 C.2   203  GLU203      0.3649
     93  OE1       18.9190   61.4910   78.7980 O.co2 203  GLU203     -0.2457
     94  OE2       21.0990   61.1610   78.9290 O.co2 203  GLU203     -0.2457
     95  N         16.4560   58.7860   76.8550 N.am  204  ASP204     -0.1974
     96  CA        15.1740   59.4540   76.6110 C.3   204  ASP204      0.1709
     97  C         14.4030   58.7820   75.4580 C.2   204  ASP204      0.2293
     98  O         13.6980   59.4340   74.6730 O.2   204  ASP204     -0.2864
     99  CB        15.3620   60.9590   76.3570 C.3   204  ASP204      0.1436
    100  CG        15.9200   61.7180   77.5760 C.2   204  ASP204      0.3671
    101  OD1       15.6100   61.3650   78.7520 O.co2 204  ASP204     -0.2456
    102  OD2       16.6720   62.7020   77.3290 O.co2 204  ASP204     -0.2456
    103  N         11.4610   57.1420   74.3070 N.3   206  GLU206     -0.1245
    104  CA        10.0510   57.0760   74.7190 C.3   206  GLU206      0.1567
    105  C          9.1960   56.2160   73.7800 C.2   206  GLU206      0.2260
    106  O          8.0490   55.9430   74.0910 O.2   206  GLU206     -0.2867
    107  CB         9.4450   58.4880   74.8340 C.3   206  GLU206      0.0388
    108  CG        10.1300   59.4010   75.8670 C.3   206  GLU206      0.1160
    109  CD         9.7370   60.8730   75.7180 C.2   206  GLU206      0.3649
    110  OE1        8.5690   61.2030   75.9470 O.co2 206  GLU206     -0.2457
    111  OE2       10.5930   61.7140   75.3810 O.co2 206  GLU206     -0.2457
    112  N         18.3180   53.4720   77.2820 N.3   223  GLN223     -0.1231
    113  CA        17.6500   54.0360   78.4430 C.3   223  GLN223      0.1698
    114  C         16.4380   54.8470   78.0080 C.2   223  GLN223      0.2593
    115  O         16.4420   55.4960   76.9590 O.2   223  GLN223     -0.2718
    116  CB        18.6270   54.9180   79.2220 C.3   223  GLN223      0.0381
    117  CG        18.1330   55.4320   80.5510 C.3   223  GLN223      0.0905
    118  CD        19.1990   56.2070   81.2630 C.2   223  GLN223      0.2608
    119  OE1       20.2970   56.3650   80.7460 O.2   223  GLN223     -0.2717
    120  NE2       18.8890   56.7060   82.4450 N.am  223  GLN223     -0.0878
    121  N         15.4000   54.8030   78.8330 N.am  224  GLY224     -0.1942
    122  CA        14.1810   55.5470   78.5670 C.3   224  GLY224      0.2014
    123  C         13.0020   54.9260   79.2650 C.2   224  GLY224      0.2638
    124  O         13.1000   53.8070   79.7870 O.2   224  GLY224     -0.2714
    125  N         11.9000   55.6730   79.2820 N.am  225  TYR225     -0.1973
    126  CA        10.6470   55.2020   79.8680 C.3   225  TYR225      0.1639
    127  C         10.1660   53.9870   79.1040 C.2   225  TYR225      0.2290
    128  O          9.6450   53.0510   79.6850 O.2   225  TYR225     -0.2864
    129  CB         9.5640   56.2830   79.8190 C.3   225  TYR225      0.0560
    130  CG         9.8370   57.5020   80.6680 C.ar  225  TYR225     -0.0198
    131  CD1       10.4490   57.3970   81.9110 C.ar  225  TYR225     -0.0009
    132  CD2        9.4470   58.7660   80.2370 C.ar  225  TYR225     -0.0009
    133  CE1       10.6820   58.5190   82.6940 C.ar  225  TYR225      0.0417
    134  CE2        9.6820   59.8930   81.0150 C.ar  225  TYR225      0.0417
    135  CZ        10.2940   59.7600   82.2410 C.ar  225  TYR225      0.1957
    136  OH        10.5140   60.8730   83.0130 O.3   225  TYR225     -0.2866
    137  N         12.3230   55.1480   86.0600 N.3   230  PRO230     -0.2116
    138  CA        13.0480   55.1100   87.3260 C.3   230  PRO230      0.1372
    139  C         12.1590   54.5810   88.4440 C.2   230  PRO230      0.2244
    140  O         10.9580   54.8260   88.4140 O.2   230  PRO230     -0.2868
    141  CB        13.4070   56.5780   87.5760 C.3   230  PRO230      0.0268
    142  CG        13.3160   57.2400   86.2660 C.3   230  PRO230      0.0207
    143  CD        12.2890   56.5000   85.4760 C.3   230  PRO230      0.0892
@<TRIPOS>BOND
     1    80    79    2
     2    79    78    1
     3    78    77    1
     4    78    81    1
     5    81    82    1
     6   105   106    2
     7   105   104    1
     8    72    71    2
     9   103   104    1
    10    71    70    1
    11    82    83    1
    12    98    97    2
    13   104   107    1
    14    89    88    2
    15   107   108    1
    16    86    87    1
    17   111   109   ar
    18    97    96    1
    19    70    73    1
    20    70    69    1
    21   109   108    1
    22   109   110   ar
    23    83    84    2
    24    83    85   am
    25    88    87    1
    26    88    95   am
    27    73    74    1
    28    87    90    1
    29    99    96    1
    30    99   100    1
    31    64    63    2
    32    96    95    1
    33    69    63   am
    34   115   114    2
    35    63    62    1
    36    91    90    1
    37    91    92    1
    38   112   113    1
    39   102   100   ar
    40    74    76   am
    41    74    75    2
    42   100   101   ar
    43   114   113    1
    44   114   121   am
    45    62    61    1
    46    62    65    1
    47    92    93   ar
    48    92    94   ar
    49   113   116    1
    50   122   121    1
    51   122   123    1
    52   127   128    2
    53   127   126    1
    54   116   117    1
    55   123   125   am
    56   123   124    2
    57   125   126    1
    58    65    66    1
    59    67    66   ar
    60   129   126    1
    61   129   130    1
    62   132   130   ar
    63   132   134   ar
    64    66    68   ar
    65   117   118    1
    66   130   131   ar
    67   119   118    2
    68   134   135   ar
    69   118   120   am
    70   131   133   ar
    71     9     7   am
    72   135   133   ar
    73   135   136    1
    74    59    58   ar
    75     7     8    2
    76     7     6    1
    77    58    60   ar
    78    58    57    1
    79    57    56    1
    80    53    56    1
    81    53    54    1
    82    53    52    1
    83    54    55    2
    84    18    16   ar
    85     6     5    1
    86    17    16   ar
    87    16    15    1
    88    51    49   am
    89     5     2    1
    90     4     3    2
    91   143   137    1
    92   143   142    1
    93     3     2    1
    94    14    15    1
    95    14    11    1
    96   137   138    1
    97     2     1    1
    98    49    50    2
    99    49    48    1
   100   142   141    1
   101    10    11    1
   102    11    12    1
   103    25    24    1
   104    26    24    1
   105   138   141    1
   106   138   139    1
   107    48    45    1
   108    45    44    1
   109    45    46    1
   110    24    23    1
   111    12    13    2
   112    46    47    2
   113   140   139    2
   114    36    35    1
   115    23    20    1
   116    43    42    1
   117    35    37    1
   118    35    34    2
   119    42    39    1
   120    20    19    1
   121    20    21    1
   122    34    33    1
   123    21    22    2
   124    39    38    1
   125    39    40    1
   126    33    32    1
   127    40    41    2
   128    32    31    1
   129    27    28    1
   130    31    28    1
   131    28    29    1
   132    29    30    2
