@<TRIPOS>MOLECULE
tmp/2w27A01.pdb
 132 126 0 0 0
SMALL
GASTEIGER

@<TRIPOS>ATOM
      1  N         21.3540   54.4640   86.5030 N.3    32  GLU32      -0.1231
      2  CA        21.6410   55.8840   86.7180 C.3    32  GLU32       0.1699
      3  C         20.9680   56.2720   88.0080 C.2    32  GLU32       0.2592
      4  O         19.8000   55.9550   88.2190 O.2    32  GLU32      -0.2718
      5  CB        21.1140   56.7690   85.5820 C.3    32  GLU32       0.0402
      6  CG        21.3340   58.2830   85.7950 C.3    32  GLU32       0.1161
      7  CD        20.9400   59.1260   84.5860 C.2    32  GLU32       0.3649
      8  OE1       21.4620   60.2570   84.4490 O.co2  32  GLU32      -0.2457
      9  OE2       20.1160   58.6590   83.7630 O.co2  32  GLU32      -0.2457
     10  N         21.7210   56.9450   88.8750 N.am   33  VAL33      -0.1966
     11  CA        21.2070   57.4310   90.1380 C.3    33  VAL33       0.1727
     12  C         20.5260   58.7730   89.9060 C.2    33  VAL33       0.2616
     13  O         21.1200   59.7070   89.3680 O.2    33  VAL33      -0.2715
     14  CB        22.3200   57.5650   91.1940 C.3    33  VAL33       0.0290
     15  CG1       21.7650   58.1510   92.4670 C.3    33  VAL33       0.0023
     16  CG2       22.9470   56.2080   91.4770 C.3    33  VAL33       0.0023
     17  N         19.2590   58.8370   90.3070 N.am   34  LEU34      -0.1963
     18  CA        18.4330   60.0420   90.1840 C.3    34  LEU34       0.1728
     19  C         17.9600   60.4730   91.5760 C.2    34  LEU34       0.2617
     20  O         17.8900   59.6490   92.4770 O.2    34  LEU34      -0.2715
     21  CB        17.2600   59.7750   89.2420 C.3    34  LEU34       0.0311
     22  CG        17.7110   59.5470   87.7960 C.3    34  LEU34       0.0022
     23  CD1       16.6930   58.7370   87.0190 C.3    34  LEU34       0.0001
     24  CD2       17.9760   60.8650   87.0970 C.3    34  LEU34       0.0001
     25  N         17.6590   61.7610   91.7400 N.am   35  GLY35      -0.1940
     26  CA        17.4520   62.3550   93.0630 C.3    35  GLY35       0.2014
     27  C         15.9970   62.6690   93.3640 C.2    35  GLY35       0.2638
     28  O         15.3370   63.3880   92.6120 O.2    35  GLY35      -0.2714
     29  N         15.5010   62.1490   94.4810 N.am   36  ARG36      -0.1977
     30  CA        14.0960   62.2670   94.8190 C.3    36  ARG36       0.1597
     31  C         13.9320   62.6140   96.2980 C.2    36  ARG36       0.2287
     32  O         14.8190   62.3520   97.1090 O.2    36  ARG36      -0.2864
     33  CB        13.3700   60.9490   94.5060 C.3    36  ARG36       0.0334
     34  CG        13.4540   60.4580   93.0470 C.3    36  ARG36       0.0492
     35  CD        12.4970   61.2140   92.1090 C.3    36  ARG36       0.2205
     36  NE        12.4870   60.6610   90.7470 N.pl3  36  ARG36      -0.0865
     37  CZ        13.3940   60.9240   89.7890 C.cat  36  ARG36       0.5346
     38  NH1       13.2720   60.3570   88.5860 N.pl3  36  ARG36       0.1354
     39  NH2       14.4270   61.7390   90.0120 N.pl3  36  ARG36       0.1354
     40  N         11.0210   65.0030   91.9800 N.3    45  SER45      -0.1217
     41  CA        12.4170   65.0980   91.5820 C.3    45  SER45       0.1889
     42  C         13.1540   66.2910   92.1780 C.2    45  SER45       0.2288
     43  O         12.6170   67.3950   92.2350 O.2    45  SER45      -0.2866
     44  CB        12.5400   65.1920   90.0540 C.3    45  SER45       0.2089
     45  OG        12.2870   63.9470   89.4310 O.3    45  SER45      -0.2183
     46  N         15.5810   67.4540   90.4860 N.3    47  GLY47      -0.1210
     47  CA        16.1420   68.0230   89.2810 C.3    47  GLY47       0.1940
     48  C         16.1970   69.5290   89.3040 C.2    47  GLY47       0.2453
     49  O         17.2690   70.1130   89.3040 O.2    47  GLY47      -0.2732
     50  N         15.0370   70.1710   89.3400 N.am   48  PRO48      -0.2728
     51  CA        14.9620   71.6270   89.4470 C.3    48  PRO48       0.1401
     52  C         15.9190   72.1940   90.4940 C.2    48  PRO48       0.2269
     53  O         16.5380   73.2320   90.2680 O.2    48  PRO48      -0.2865
     54  CB        13.5150   71.8620   89.8730 C.3    48  PRO48       0.0296
     55  CG        12.7780   70.7160   89.2720 C.3    48  PRO48       0.0237
     56  CD        13.7090   69.5440   89.3040 C.3    48  PRO48       0.0939
     57  N         18.8170   70.7620   91.6420 N.3    50  PHE50      -0.1227
     58  CA        20.2200   70.6690   91.1880 C.3    50  PHE50       0.1736
     59  C         20.5310   71.5850   90.0120 C.2    50  PHE50       0.2595
     60  O         21.6670   71.9920   89.8170 O.2    50  PHE50      -0.2718
     61  CB        20.5960   69.2370   90.8200 C.3    50  PHE50       0.0547
     62  CG        20.6980   68.3240   91.9970 C.ar   50  PHE50      -0.0202
     63  CD1       19.9110   67.1890   92.0830 C.ar   50  PHE50      -0.0042
     64  CD2       21.5690   68.6110   93.0350 C.ar   50  PHE50      -0.0042
     65  CE1       19.9870   66.3460   93.1870 C.ar   50  PHE50      -0.0003
     66  CE2       21.6510   67.7730   94.1650 C.ar   50  PHE50      -0.0003
     67  CZ        20.8600   66.6380   94.2370 C.ar   50  PHE50      -0.0000
     68  N         19.5150   71.9110   89.2320 N.am   51  LEU51      -0.1980
     69  CA        19.6910   72.7500   88.0550 C.3    51  LEU51       0.1596
     70  C         19.5820   74.2420   88.3630 C.2    51  LEU51       0.2287
     71  O         19.9440   75.0620   87.5250 O.2    51  LEU51      -0.2864
     72  CB        18.6610   72.3680   86.9930 C.3    51  LEU51       0.0297
     73  CG        19.1780   71.4660   85.8720 C.3    51  LEU51       0.0022
     74  CD1       18.2960   70.2460   85.7010 C.3    51  LEU51       0.0001
     75  CD2       19.2770   72.2620   84.5590 C.3    51  LEU51       0.0001
     76  N         23.3330   66.2080   97.4650 N.3    64  ASP64      -0.1239
     77  CA        24.0060   65.2770   96.5640 C.3    64  ASP64       0.1674
     78  C         24.6100   64.1210   97.3610 C.2    64  ASP64       0.2266
     79  O         24.4570   62.9500   97.0040 O.2    64  ASP64      -0.2867
     80  CB        25.1040   66.0270   95.7790 C.3    64  ASP64       0.1410
     81  CG        25.5150   65.3250   94.4810 C.2    64  ASP64       0.3668
     82  OD1       24.7780   64.4150   94.0450 O.co2  64  ASP64      -0.2456
     83  OD2       26.5690   65.7040   93.8890 O.co2  64  ASP64      -0.2456
     84  N         22.2710   61.4350   98.8460 N.3    67  ILE67      -0.1231
     85  CA        21.7410   60.5430   97.8330 C.3    67  ILE67       0.1692
     86  C         22.7840   59.5150   97.4240 C.2    67  ILE67       0.2591
     87  O         22.4960   58.3250   97.3900 O.2    67  ILE67      -0.2718
     88  CB        21.2910   61.3510   96.6150 C.3    67  ILE67       0.0266
     89  CG1       20.0560   62.1690   96.9890 C.3    67  ILE67       0.0019
     90  CG2       21.0390   60.4470   95.4040 C.3    67  ILE67       0.0020
     91  CD1       19.7680   63.2740   95.9970 C.3    67  ILE67       0.0001
     92  N         23.9900   59.9790   97.1060 N.am   68  ILE68      -0.1980
     93  CA        25.0970   59.0840   96.7230 C.3    68  ILE68       0.1595
     94  C         25.3910   58.0210   97.8120 C.2    68  ILE68       0.2287
     95  O         25.5330   56.8250   97.5200 O.2    68  ILE68      -0.2864
     96  CB        26.3880   59.8820   96.4530 C.3    68  ILE68       0.0276
     97  CG1       26.2400   60.7330   95.2000 C.3    68  ILE68       0.0022
     98  CG2       27.5690   58.9480   96.2790 C.3    68  ILE68       0.0022
     99  CD1       27.3140   61.7870   95.0560 C.3    68  ILE68       0.0001
    100  N         25.4100   61.4860   87.9220 N.3    87  ASN87      -0.1225
    101  CA        25.4390   62.8250   87.3990 C.3    87  ASN87       0.1785
    102  C         26.3510   63.6970   88.2330 C.2    87  ASN87       0.2597
    103  O         26.2220   63.7510   89.4580 O.2    87  ASN87      -0.2718
    104  CB        24.0220   63.3780   87.3440 C.3    87  ASN87       0.1169
    105  CG        23.2410   62.7710   86.2180 C.2    87  ASN87       0.2627
    106  OD1       22.6790   61.6800   86.3460 O.2    87  ASN87      -0.2716
    107  ND2       23.2490   63.4580   85.0690 N.am   87  ASN87      -0.0877
    108  N         27.2810   64.3680   87.5660 N.am   88  GLN88      -0.1965
    109  CA        28.1920   65.2790   88.2240 C.3    88  GLN88       0.1733
    110  C         28.4680   66.4820   87.3290 C.2    88  GLN88       0.2616
    111  O         28.9340   66.3290   86.2070 O.2    88  GLN88      -0.2715
    112  CB        29.5040   64.5700   88.5520 C.3    88  GLN88       0.0408
    113  CG        29.4410   63.6230   89.7260 C.3    88  GLN88       0.0908
    114  CD        29.4510   64.3400   91.0730 C.2    88  GLN88       0.2608
    115  OE1       30.3190   65.1660   91.3400 O.2    88  GLN88      -0.2717
    116  NE2       28.4920   64.0080   91.9340 N.am   88  GLN88      -0.0878
    117  N         28.1690   67.6710   87.8430 N.am   89  ASP89      -0.1971
    118  CA        28.5110   68.9450   87.2010 C.3    89  ASP89       0.1709
    119  C         30.0280   69.1250   87.1970 C.2    89  ASP89       0.2293
    120  O         30.6640   68.9640   88.2340 O.2    89  ASP89      -0.2864
    121  CB        27.8690   70.1050   87.9910 C.3    89  ASP89       0.1436
    122  CG        28.0480   71.4790   87.3250 C.2    89  ASP89       0.3671
    123  OD1       29.1260   71.7710   86.7470 O.co2  89  ASP89      -0.2456
    124  OD2       27.1030   72.2930   87.4270 O.co2  89  ASP89      -0.2456
    125  N         27.4280   64.0220   78.4020 N.3   151  ASP151     -0.1239
    126  CA        25.9840   64.2470   78.2630 C.3   151  ASP151      0.1674
    127  C         25.6510   65.1720   77.1030 C.2   151  ASP151      0.2266
    128  O         26.5090   65.8690   76.5840 O.2   151  ASP151     -0.2867
    129  CB        25.4380   64.9340   79.5340 C.3   151  ASP151      0.1410
    130  CG        24.4940   64.0490   80.3450 C.2   151  ASP151      0.3668
    131  OD1       23.9840   63.0550   79.7740 O.co2 151  ASP151     -0.2456
    132  OD2       24.2410   64.3580   81.5490 O.co2 151  ASP151     -0.2456
@<TRIPOS>BOND
     1   128   127    2
     2   127   126    1
     3   126   125    1
     4   126   129    1
     5   129   130    1
     6   131   130   ar
     7   130   132   ar
     8     9     7   ar
     9     8     7   ar
    10    75    73    1
    11     7     6    1
    12   107   105   am
    13     5     6    1
    14     5     2    1
    15    74    73    1
    16    73    72    1
    17   111   110    2
    18   105   106    2
    19   105   104    1
    20     1     2    1
    21     2     3    1
    22   123   122   ar
    23    72    69    1
    24    23    22    1
    25    24    22    1
    26   119   118    1
    27   119   120    2
    28   118   117    1
    29   118   121    1
    30   122   124   ar
    31   122   121    1
    32   110   117   am
    33   110   109    1
    34   104   101    1
    35   101   100    1
    36   101   102    1
    37    71    70    2
    38   108   109    1
    39   108   102   am
    40    22    21    1
    41     3     4    2
    42     3    10   am
    43    69    70    1
    44    69    68    1
    45   109   112    1
    46   102   103    2
    47   112   113    1
    48    38    37    1
    49    10    11    1
    50    68    59   am
    51    21    18    1
    52    55    56    1
    53    55    54    1
    54    47    48    1
    55    47    46    1
    56    56    50    1
    57    48    49    2
    58    48    50   am
    59    50    51    1
    60    13    12    2
    61    45    44    1
    62    51    54    1
    63    51    52    1
    64   113   114    1
    65    37    39    1
    66    37    36    2
    67    60    59    2
    68    12    11    1
    69    12    17   am
    70    59    58    1
    71    44    41    1
    72    11    14    1
    73    18    17    1
    74    18    19    1
    75    53    52    2
    76    36    35    1
    77    61    58    1
    78    61    62    1
    79   114   115    2
    80   114   116   am
    81    58    57    1
    82    14    16    1
    83    14    15    1
    84    19    25   am
    85    19    20    2
    86    41    40    1
    87    41    42    1
    88    25    26    1
    89    62    63   ar
    90    62    64   ar
    91    63    65   ar
    92    35    34    1
    93    42    43    2
    94    28    27    2
    95    64    66   ar
    96    34    33    1
    97    26    27    1
    98    65    67   ar
    99    27    29   am
   100    83    81   ar
   101    82    81   ar
   102    66    67   ar
   103    29    30    1
   104    81    80    1
   105    33    30    1
   106    30    31    1
   107    99    97    1
   108    97    96    1
   109    90    88    1
   110    80    77    1
   111    91    89    1
   112    98    96    1
   113    31    32    2
   114    96    93    1
   115    77    78    1
   116    77    76    1
   117    88    89    1
   118    88    85    1
   119    93    92    1
   120    93    94    1
   121    79    78    2
   122    92    86   am
   123    87    86    2
   124    86    85    1
   125    95    94    2
   126    85    84    1
