@<TRIPOS>MOLECULE
tmp/2w2iC00.pdb
 115 110 0 0 0
SMALL
GASTEIGER

@<TRIPOS>ATOM
      1  N         61.0030   12.9850  112.2070 N.3   121  TYR121     -0.1241
      2  CA        60.5600   13.9060  111.1530 C.3   121  TYR121      0.1605
      3  C         59.1570   14.3600  111.4660 C.2   121  TYR121      0.2264
      4  O         58.2660   13.5340  111.6560 O.2   121  TYR121     -0.2867
      5  CB        60.6170   13.2340  109.7850 C.3   121  TYR121      0.0534
      6  CG        60.6820   14.1520  108.5620 C.ar  121  TYR121     -0.0201
      7  CD1       60.7820   15.5390  108.6820 C.ar  121  TYR121     -0.0009
      8  CD2       60.7090   13.6180  107.2800 C.ar  121  TYR121     -0.0009
      9  CE1       60.8520   16.3730  107.5500 C.ar  121  TYR121      0.0417
     10  CE2       60.7820   14.4460  106.1430 C.ar  121  TYR121      0.0417
     11  CZ        60.8490   15.8270  106.2910 C.ar  121  TYR121      0.1957
     12  OH        60.9510   16.6780  105.1840 O.3   121  TYR121     -0.2866
     13  N         56.2860   20.4330  106.7610 N.3   166  TYR166     -0.1241
     14  CA        57.3270   19.4820  107.1620 C.3   166  TYR166      0.1605
     15  C         58.3480   20.1850  108.0580 C.2   166  TYR166      0.2264
     16  O         59.1330   21.0100  107.5830 O.2   166  TYR166     -0.2867
     17  CB        58.0610   18.9770  105.9150 C.3   166  TYR166      0.0534
     18  CG        57.1870   18.2220  104.9570 C.ar  166  TYR166     -0.0201
     19  CD1       56.3840   18.8820  104.0450 C.ar  166  TYR166     -0.0009
     20  CD2       57.1460   16.8370  104.9860 C.ar  166  TYR166     -0.0009
     21  CE1       55.5790   18.1820  103.1960 C.ar  166  TYR166      0.0417
     22  CE2       56.3470   16.1380  104.1440 C.ar  166  TYR166      0.0417
     23  CZ        55.5650   16.8060  103.2530 C.ar  166  TYR166      0.1957
     24  OH        54.7690   16.0810  102.4040 O.3   166  TYR166     -0.2866
     25  N         63.2620   12.1530  102.5640 N.3   174  PHE174     -0.1241
     26  CA        62.1930   11.6970  101.7020 C.3   174  PHE174      0.1605
     27  C         62.8230   10.7360  100.6840 C.2   174  PHE174      0.2264
     28  O         63.7060   11.1070   99.9230 O.2   174  PHE174     -0.2867
     29  CB        61.3880   12.8500  101.0540 C.3   174  PHE174      0.0534
     30  CG        62.2120   13.9390  100.4420 C.ar  174  PHE174     -0.0203
     31  CD1       62.8300   14.8960  101.2270 C.ar  174  PHE174     -0.0042
     32  CD2       62.3090   14.0510   99.0370 C.ar  174  PHE174     -0.0042
     33  CE1       63.5920   15.9330  100.6180 C.ar  174  PHE174     -0.0003
     34  CE2       63.0340   15.0700   98.4510 C.ar  174  PHE174     -0.0003
     35  CZ        63.6770   16.0110   99.2360 C.ar  174  PHE174     -0.0000
     36  N         60.5180    8.7790   95.0910 N.3   177  HIS177     -0.1241
     37  CA        59.0970    8.7150   94.7840 C.3   177  HIS177      0.1621
     38  C         58.7590    9.6370   93.6170 C.2   177  HIS177      0.2264
     39  O         59.5460   10.4950   93.2520 O.2   177  HIS177     -0.2867
     40  CB        58.2550    9.1100   96.0250 C.3   177  HIS177      0.0745
     41  CG        58.3110   10.5730   96.3790 C.ar  177  HIS177      0.0817
     42  ND1       59.2970   11.1060   97.1820 N.ar  177  HIS177     -0.2268
     43  CD2       57.4960   11.6130   96.0600 C.ar  177  HIS177      0.1154
     44  CE1       59.1080   12.4140   97.3140 C.ar  177  HIS177      0.1986
     45  NE2       58.0130   12.7490   96.6600 N.ar  177  HIS177     -0.2212
     46  N         55.0040   11.9360   92.5640 N.3   179  GLU179     -0.1245
     47  CA        53.7800   12.4100   93.2120 C.3   179  GLU179      0.1567
     48  C         52.5240   11.5930   92.8480 C.2   179  GLU179      0.2260
     49  O         52.4420   10.9850   91.7610 O.2   179  GLU179     -0.2867
     50  CB        53.5470   13.8560   92.7710 C.3   179  GLU179      0.0388
     51  CG        54.7000   14.7670   93.0720 C.3   179  GLU179      0.1160
     52  CD        54.9780   14.7650   94.5550 C.2   179  GLU179      0.3649
     53  OE1       54.1000   15.2510   95.3360 O.co2 179  GLU179     -0.2457
     54  OE2       56.0310   14.2160   94.9070 O.co2 179  GLU179     -0.2457
     55  N         54.5660   19.0410   91.9660 N.3   185  SER185     -0.1217
     56  CA        54.5620   19.5810   93.3420 C.3   185  SER185      0.1889
     57  C         55.3590   20.8540   93.3990 C.2   185  SER185      0.2288
     58  O         56.1660   21.1320   92.5080 O.2   185  SER185     -0.2866
     59  CB        55.1000   18.5750   94.3670 C.3   185  SER185      0.2089
     60  OG        56.4850   18.3160   94.1550 O.3   185  SER185     -0.2183
     61  N         57.4180   23.1360   96.5840 N.3   187  ASN187     -0.1240
     62  CA        57.9240   23.0470   97.9610 C.3   187  ASN187      0.1653
     63  C         58.6320   24.3520   98.2990 C.2   187  ASN187      0.2266
     64  O         59.5680   24.7500   97.6280 O.2   187  ASN187     -0.2867
     65  CB        58.8940   21.8460   98.1300 C.3   187  ASN187      0.1155
     66  CG        59.4580   21.6830   99.5860 C.2   187  ASN187      0.2627
     67  OD1       60.1730   22.5560  100.1060 O.2   187  ASN187     -0.2716
     68  ND2       59.1900   20.5200  100.1960 N.am  187  ASN187     -0.0877
     69  N         67.6970   21.9450  102.4800 N.3   195  LYS195     -0.1245
     70  CA        67.1100   20.6630  102.1090 C.3   195  LYS195      0.1561
     71  C         67.7310   20.3080  100.7830 C.2   195  LYS195      0.2260
     72  O         67.6590   21.0980   99.8360 O.2   195  LYS195     -0.2867
     73  CB        65.5920   20.8010  101.9540 C.3   195  LYS195      0.0271
     74  CG        64.8410   19.5090  101.7040 C.3   195  LYS195      0.0035
     75  CD        63.3630   19.7700  101.3810 C.3   195  LYS195      0.0206
     76  CE        62.5780   20.2680  102.5990 C.3   195  LYS195      0.1093
     77  NZ        62.2300   19.2260  103.6120 N.3   195  LYS195     -0.1314
     78  N         68.0790   18.0050   97.4030 N.3   197  TRP197     -0.1241
     79  CA        67.2060   17.2480   96.4990 C.3   197  TRP197      0.1605
     80  C         68.0240   16.5020   95.4490 C.2   197  TRP197      0.2264
     81  O         68.9840   17.0300   94.9160 O.2   197  TRP197     -0.2867
     82  CB        66.2780   18.1820   95.7230 C.3   197  TRP197      0.0550
     83  CG        65.2910   18.9150   96.5360 C.ar  197  TRP197      0.0003
     84  CD1       65.5430   19.9070   97.4350 C.ar  197  TRP197      0.0946
     85  CD2       63.8750   18.7240   96.5320 C.ar  197  TRP197      0.0152
     86  NE1       64.3630   20.3540   97.9940 N.ar  197  TRP197     -0.2442
     87  CE2       63.3260   19.6420   97.4540 C.ar  197  TRP197      0.0810
     88  CE3       63.0210   17.8970   95.8130 C.ar  197  TRP197      0.0012
     89  CZ2       61.9590   19.7400   97.6820 C.ar  197  TRP197      0.0191
     90  CZ3       61.6640   17.9730   96.0450 C.ar  197  TRP197      0.0001
     91  CH2       61.1390   18.8890   96.9710 C.ar  197  TRP197      0.0015
     92  N         57.4470    5.5950   98.6590 N.3   230  LYS230     -0.1245
     93  CA        58.4220    6.4140   99.4100 C.3   230  LYS230      0.1561
     94  C         59.2340    5.6420  100.4850 C.2   230  LYS230      0.2260
     95  O         59.4500    6.1290  101.5910 O.2   230  LYS230     -0.2867
     96  CB        57.7120    7.6370  100.0160 C.3   230  LYS230      0.0271
     97  CG        58.6300    8.8050  100.3360 C.3   230  LYS230      0.0035
     98  CD        57.9340   10.1720  100.2280 C.3   230  LYS230      0.0206
     99  CE        57.0780   10.4790  101.4390 C.3   230  LYS230      0.1093
    100  NZ        57.0300   11.9330  101.7540 N.3   230  LYS230     -0.1314
    101  N         62.0640   11.9400   92.6760 N.3   265  HIS265     -0.1241
    102  CA        62.9650   12.6950   93.5600 C.3   265  HIS265      0.1621
    103  C         63.0980   12.1210   94.9600 C.2   265  HIS265      0.2264
    104  O         62.2100   11.4030   95.4400 O.2   265  HIS265     -0.2867
    105  CB        62.5470   14.1680   93.6520 C.3   265  HIS265      0.0745
    106  CG        61.1240   14.3770   94.0300 C.ar  265  HIS265      0.0817
    107  ND1       60.0870   14.3270   93.1240 N.ar  265  HIS265     -0.2268
    108  CD2       60.5670   14.6530   95.2210 C.ar  265  HIS265      0.1154
    109  CE1       58.9460   14.5480   93.7520 C.ar  265  HIS265      0.1986
    110  NE2       59.2200   14.7790   95.0220 N.ar  265  HIS265     -0.2212
    111  N         54.5420   22.2340  101.3360 N.3   277  ALA277     -0.1245
    112  CA        54.3690   21.6860   99.9800 C.3   277  ALA277      0.1562
    113  C         52.9130   21.3430   99.6750 C.2   277  ALA277      0.2260
    114  O         52.1310   21.0630  100.5760 O.2   277  ALA277     -0.2867
    115  CB        55.2500   20.4540   99.7700 C.3   277  ALA277      0.0290
@<TRIPOS>BOND
     1    49    48    2
     2    55    56    1
     3    58    57    2
     4    46    47    1
     5   101   102    1
     6    50    51    1
     7    50    47    1
     8    48    47    1
     9    51    52    1
    10   107   109   ar
    11   107   106   ar
    12    39    38    2
    13    56    57    1
    14    56    59    1
    15   102   105    1
    16   102   103    1
    17    38    37    1
    18   105   106    1
    19   109   110   ar
    20   106   108   ar
    21    60    59    1
    22    52    54   ar
    23    52    53   ar
    24    37    36    1
    25    37    40    1
    26    81    80    2
    27   103   104    2
    28   110   108   ar
    29    80    79    1
    30    82    79    1
    31    82    83    1
    32    88    90   ar
    33    88    85   ar
    34    40    41    1
    35    90    91   ar
    36    43    41   ar
    37    43    45   ar
    38    41    42   ar
    39    79    78    1
    40    85    83   ar
    41    85    87   ar
    42    83    84   ar
    43    61    62    1
    44    45    44   ar
    45    91    89   ar
    46    42    44   ar
    47    84    86   ar
    48    87    89   ar
    49    87    86   ar
    50    64    63    2
    51    62    65    1
    52    62    63    1
    53    65    66    1
    54    34    32   ar
    55    34    35   ar
    56    92    93    1
    57    32    30   ar
    58    35    33   ar
    59    93    96    1
    60    93    94    1
    61    66    67    2
    62    66    68   am
    63   113   112    1
    64   113   114    2
    65   115   112    1
    66    72    71    2
    67    28    27    2
    68   112   111    1
    69    96    97    1
    70    98    97    1
    71    98    99    1
    72    30    29    1
    73    30    31   ar
    74    94    95    2
    75    33    31   ar
    76    27    26    1
    77    71    70    1
    78    29    26    1
    79    75    74    1
    80    75    76    1
    81    99   100    1
    82    26    25    1
    83    74    73    1
    84    73    70    1
    85    70    69    1
    86    24    23    1
    87    76    77    1
    88    21    23   ar
    89    21    19   ar
    90    23    22   ar
    91    19    18   ar
    92    22    20   ar
    93    18    20   ar
    94    18    17    1
    95    12    11    1
    96    17    14    1
    97    10    11   ar
    98    10     8   ar
    99    11     9   ar
   100    13    14    1
   101    14    15    1
   102     8     6   ar
   103     9     7   ar
   104    16    15    2
   105     6     7   ar
   106     6     5    1
   107     5     2    1
   108     2     3    1
   109     2     1    1
   110     3     4    2
