@<TRIPOS>MOLECULE
tmp/2w2uA00.pdb
 180 170 0 0 0
SMALL
GASTEIGER

@<TRIPOS>ATOM
      1  N         17.5610  -11.2410   41.8060 N.3     4  GLN4       -0.1231
      2  CA        17.6600   -9.8800   42.3310 C.3     4  GLN4        0.1698
      3  C         18.7810   -9.1160   41.6470 C.2     4  GLN4        0.2592
      4  O         18.5560   -8.0420   41.0890 O.2     4  GLN4       -0.2718
      5  CB        17.8750   -9.8880   43.8470 C.3     4  GLN4        0.0381
      6  CG        17.7120   -8.5150   44.4890 C.3     4  GLN4        0.0905
      7  CD        17.5650   -8.5650   45.9990 C.2     4  GLN4        0.2608
      8  OE1       17.0250   -7.6390   46.6100 O.2     4  GLN4       -0.2717
      9  NE2       18.0420   -9.6430   46.6100 N.am    4  GLN4       -0.0878
     10  N         19.9830   -9.6940   41.6900 N.am    5  VAL5       -0.1980
     11  CA        21.1850   -9.0950   41.1170 C.3     5  VAL5        0.1595
     12  C         21.0560   -8.9100   39.5960 C.2     5  VAL5        0.2287
     13  O         21.4740   -7.8920   39.0510 O.2     5  VAL5       -0.2864
     14  CB        22.4560   -9.9250   41.4790 C.3     5  VAL5        0.0276
     15  CG1       23.6780   -9.4280   40.7240 C.3     5  VAL5        0.0022
     16  CG2       22.7200   -9.8740   42.9830 C.3     5  VAL5        0.0022
     17  N         18.6440   -6.0390   39.0810 N.3     8  GLU8       -0.1245
     18  CA        19.3520   -4.8240   39.4880 C.3     8  GLU8        0.1567
     19  C         20.2910   -4.3010   38.3950 C.2     8  GLU8        0.2260
     20  O         20.3100   -3.1030   38.1160 O.2     8  GLU8       -0.2867
     21  CB        20.0900   -5.0320   40.8170 C.3     8  GLU8        0.0388
     22  CG        19.1400   -5.0360   42.0130 C.3     8  GLU8        0.1160
     23  CD        19.7770   -5.4860   43.3160 C.2     8  GLU8        0.3649
     24  OE1       20.9300   -5.9670   43.3100 O.co2   8  GLU8       -0.2457
     25  OE2       19.1100   -5.3460   44.3630 O.co2   8  GLU8       -0.2457
     26  N         18.1320   -2.8910   35.4630 N.3    11  ALA11      -0.1231
     27  CA        17.7020   -1.5470   35.8510 C.3    11  ALA11       0.1694
     28  C         18.8360   -0.5290   35.7230 C.2    11  ALA11       0.2591
     29  O         18.6280    0.5690   35.2030 O.2    11  ALA11      -0.2718
     30  CB        17.1490   -1.5580   37.2770 C.3    11  ALA11       0.0304
     31  N         20.0300   -0.9120   36.1880 N.am   12  ARG12      -0.1980
     32  CA        21.2350   -0.0810   36.0820 C.3    12  ARG12       0.1597
     33  C         21.5760    0.3070   34.6380 C.2    12  ARG12       0.2287
     34  O         21.8130    1.4770   34.3580 O.2    12  ARG12      -0.2864
     35  CB        22.4310   -0.7750   36.7430 C.3    12  ARG12       0.0334
     36  CG        23.6940    0.0730   36.7890 C.3    12  ARG12       0.0492
     37  CD        24.8530   -0.6300   37.5060 C.3    12  ARG12       0.2205
     38  NE        24.5290   -0.9390   38.9000 N.pl3  12  ARG12      -0.0865
     39  CZ        24.3060   -2.1630   39.3730 C.cat  12  ARG12       0.5346
     40  NH1       24.3850   -3.2260   38.5770 N.pl3  12  ARG12       0.1354
     41  NH2       24.0120   -2.3260   40.6560 N.pl3  12  ARG12       0.1354
     42  N         19.0320    2.8030   33.4750 N.3    15  ALA15      -0.1231
     43  CA        19.2640    4.0740   34.1650 C.3    15  ALA15       0.1694
     44  C         20.4590    4.8340   33.5850 C.2    15  ALA15       0.2591
     45  O         20.3800    6.0410   33.3650 O.2    15  ALA15      -0.2718
     46  CB        19.4450    3.8470   35.6620 C.3    15  ALA15       0.0304
     47  N         21.5530    4.1190   33.3330 N.am   16  ILE16      -0.1980
     48  CA        22.7440    4.6890   32.6990 C.3    16  ILE16       0.1595
     49  C         22.4340    5.1820   31.2760 C.2    16  ILE16       0.2287
     50  O         22.8770    6.2640   30.8850 O.2    16  ILE16      -0.2864
     51  CB        23.9350    3.6830   32.6960 C.3    16  ILE16       0.0276
     52  CG1       24.4180    3.4130   34.1280 C.3    16  ILE16       0.0022
     53  CG2       25.0970    4.1930   31.8390 C.3    16  ILE16       0.0022
     54  CD1       25.4540    2.2850   34.2300 C.3    16  ILE16       0.0001
     55  N         20.2940    8.5380   31.6770 N.3    19  VAL19      -0.1245
     56  CA        21.0580    9.6950   32.1340 C.3    19  VAL19       0.1561
     57  C         21.9870   10.1920   31.0150 C.2    19  VAL19       0.2260
     58  O         22.1590   11.4030   30.8340 O.2    19  VAL19      -0.2867
     59  CB        21.8330    9.3860   33.4540 C.3    19  VAL19       0.0252
     60  CG1       22.6530   10.5750   33.9010 C.3    19  VAL19       0.0019
     61  CG2       20.8640    8.9980   34.5620 C.3    19  VAL19       0.0019
     62  N         19.7440   11.7810   28.4200 N.3    22  ASP22      -0.1225
     63  CA        19.3000   13.0040   29.0810 C.3    22  ASP22       0.1805
     64  C         20.3290   14.1310   28.9160 C.2    22  ASP22       0.2597
     65  O         19.9760   15.2450   28.5180 O.2    22  ASP22      -0.2718
     66  CB        19.0420   12.7170   30.5690 C.3    22  ASP22       0.1424
     67  CG        18.1770   13.7660   31.2440 C.2    22  ASP22       0.3668
     68  OD1       18.0620   14.9080   30.7380 O.co2  22  ASP22      -0.2456
     69  OD2       17.6130   13.4420   32.3100 O.co2  22  ASP22      -0.2456
     70  N         21.5930   13.8310   29.2120 N.am   23  LYS23      -0.1979
     71  CA        22.6760   14.8160   29.1230 C.3    23  LYS23       0.1596
     72  C         23.0240   15.2080   27.6820 C.2    23  LYS23       0.2287
     73  O         23.5700   16.2870   27.4400 O.2    23  LYS23      -0.2864
     74  CB        23.9190   14.3300   29.8760 C.3    23  LYS23       0.0298
     75  CG        23.7270   14.2600   31.3980 C.3    23  LYS23       0.0038
     76  CD        25.0160   13.8740   32.1150 C.3    23  LYS23       0.0206
     77  CE        24.7730   13.5120   33.5780 C.3    23  LYS23       0.1093
     78  NZ        24.3410   14.6630   34.4180 N.3    23  LYS23      -0.1314
     79  N         14.3640    5.6970   31.2110 N.3    34  TYR34      -0.1241
     80  CA        13.8950    5.9240   32.5850 C.3    34  TYR34       0.1605
     81  C         12.6790    5.0340   32.8880 C.2    34  TYR34       0.2264
     82  O         12.6120    4.4010   33.9500 O.2    34  TYR34      -0.2867
     83  CB        13.5140    7.3970   32.8110 C.3    34  TYR34       0.0534
     84  CG        14.6570    8.3730   33.0520 C.ar   34  TYR34      -0.0201
     85  CD1       15.6180    8.1430   34.0470 C.ar   34  TYR34      -0.0009
     86  CD2       14.7440    9.5560   32.3180 C.ar   34  TYR34      -0.0009
     87  CE1       16.6570    9.0550   34.2710 C.ar   34  TYR34       0.0417
     88  CE2       15.7750   10.4720   32.5300 C.ar   34  TYR34       0.0417
     89  CZ        16.7220   10.2160   33.5100 C.ar   34  TYR34       0.1957
     90  OH        17.7280   11.1210   33.7140 O.3    34  TYR34      -0.2866
     91  N         12.5940   -1.7470   38.2850 N.3    41  LEU41      -0.1245
     92  CA        12.6360   -1.4060   39.7090 C.3    41  LEU41       0.1561
     93  C         11.3080   -1.7140   40.4140 C.2    41  LEU41       0.2260
     94  O         11.3030   -2.1370   41.5690 O.2    41  LEU41      -0.2867
     95  CB        13.0650    0.0550   39.9240 C.3    41  LEU41       0.0270
     96  CG        14.5260    0.4500   39.6280 C.3    41  LEU41       0.0019
     97  CD1       14.7080    1.9750   39.5920 C.3    41  LEU41       0.0001
     98  CD2       15.5110   -0.1800   40.6130 C.3    41  LEU41       0.0001
     99  N         15.5810   -4.6550   52.8070 N.3    52  SER52      -0.1202
    100  CA        16.2210   -3.3650   53.0470 C.3    52  SER52       0.2020
    101  C         16.5100   -2.5660   51.7700 C.2    52  SER52       0.2619
    102  O         16.4860   -1.3320   51.8000 O.2    52  SER52      -0.2717
    103  CB        17.4940   -3.5230   53.8960 C.3    52  SER52       0.2103
    104  OG        18.4190   -4.3960   53.2810 O.3    52  SER52      -0.2182
    105  N         16.7630   -3.2580   50.6590 N.am   53  THR53      -0.1952
    106  CA        17.0450   -2.5880   49.3810 C.3    53  THR53       0.1897
    107  C         15.8120   -1.8670   48.8120 C.2    53  THR53       0.2313
    108  O         15.9550   -0.9160   48.0410 O.2    53  THR53      -0.2863
    109  CB        17.6080   -3.5620   48.2890 C.3    53  THR53       0.1794
    110  OG1       18.3480   -4.6270   48.8900 O.3    53  THR53      -0.2208
    111  CG2       18.5170   -2.8120   47.3040 C.3    53  THR53       0.0378
    112  N         15.6070    1.9200   48.5610 N.3    56  ILE56      -0.1231
    113  CA        16.4260    2.4670   47.4750 C.3    56  ILE56       0.1692
    114  C         15.7450    2.3200   46.1040 C.2    56  ILE56       0.2592
    115  O         15.7420    3.2690   45.3060 O.2    56  ILE56      -0.2718
    116  CB        17.8530    1.8580   47.4580 C.3    56  ILE56       0.0266
    117  CG1       18.6100    2.2370   48.7410 C.3    56  ILE56       0.0019
    118  CG2       18.6200    2.3130   46.2170 C.3    56  ILE56       0.0020
    119  CD1       19.7510    1.2870   49.1040 C.3    56  ILE56       0.0001
    120  N         15.1710    1.1450   45.8300 N.am   57  TYR57      -0.1976
    121  CA        14.3760    0.9570   44.6040 C.3    57  TYR57       0.1639
    122  C         13.2860    2.0220   44.5100 C.2    57  TYR57       0.2290
    123  O         13.1090    2.6570   43.4680 O.2    57  TYR57      -0.2864
    124  CB        13.6760   -0.4010   44.5670 C.3    57  TYR57       0.0560
    125  CG        14.5250   -1.6460   44.6960 C.ar   57  TYR57      -0.0198
    126  CD1       15.8420   -1.6960   44.2260 C.ar   57  TYR57      -0.0009
    127  CD2       13.9730   -2.8080   45.2400 C.ar   57  TYR57      -0.0009
    128  CE1       16.5900   -2.8650   44.3380 C.ar   57  TYR57       0.0417
    129  CE2       14.7070   -3.9720   45.3570 C.ar   57  TYR57       0.0417
    130  CZ        16.0100   -3.9980   44.9060 C.ar   57  TYR57       0.1957
    131  OH        16.7210   -5.1660   45.0340 O.3    57  TYR57      -0.2866
    132  N         12.9610    4.9290   46.1580 N.3    59  GLN59      -0.1231
    133  CA        13.5670    6.2500   46.0040 C.3    59  GLN59       0.1698
    134  C         13.9240    6.5560   44.5490 C.2    59  GLN59       0.2592
    135  O         13.6530    7.6510   44.0590 O.2    59  GLN59      -0.2718
    136  CB        14.8220    6.3790   46.8830 C.3    59  GLN59       0.0381
    137  CG        15.5010    7.7540   46.8340 C.3    59  GLN59       0.0905
    138  CD        16.9420    7.7360   47.3540 C.2    59  GLN59       0.2608
    139  OE1       17.2250    7.1630   48.4090 O.2    59  GLN59      -0.2717
    140  NE2       17.8580    8.3730   46.6130 N.am   59  GLN59      -0.0878
    141  N         14.5400    5.5950   43.8680 N.am   60  MET60      -0.1979
    142  CA        14.9810    5.8040   42.4910 C.3    60  MET60       0.1605
    143  C         13.8200    5.8570   41.4890 C.2    60  MET60       0.2287
    144  O         13.8540    6.6430   40.5330 O.2    60  MET60      -0.2864
    145  CB        16.0470    4.7800   42.0890 C.3    60  MET60       0.0413
    146  CG        17.3610    4.9210   42.8790 C.3    60  MET60       0.0598
    147  SD        17.9550    6.6230   43.1280 S.3    60  MET60      -0.1393
    148  CE        18.5390    7.0240   41.4850 C.3    60  MET60       0.0692
    149  N         12.5890    9.4350   41.7650 N.3    63  GLU63      -0.1231
    150  CA        13.5170   10.3440   41.1030 C.3    63  GLU63       0.1699
    151  C         13.3600   10.2760   39.5890 C.2    63  GLU63       0.2592
    152  O         13.3030   11.3080   38.9200 O.2    63  GLU63      -0.2718
    153  CB        14.9630   10.0410   41.5040 C.3    63  GLU63       0.0402
    154  CG        15.3040   10.4530   42.9290 C.3    63  GLU63       0.1161
    155  CD        16.7850   10.3570   43.2490 C.2    63  GLU63       0.3649
    156  OE1       17.1190   10.2940   44.4490 O.co2  63  GLU63      -0.2457
    157  OE2       17.6180   10.3490   42.3170 O.co2  63  GLU63      -0.2457
    158  N         13.2800    9.0590   39.0580 N.am   64  TYR64      -0.1976
    159  CA        13.1400    8.8560   37.6170 C.3    64  TYR64       0.1639
    160  C         11.7720    9.3070   37.1190 C.2    64  TYR64       0.2290
    161  O         11.6830    9.9210   36.0530 O.2    64  TYR64      -0.2864
    162  CB        13.4290    7.4010   37.2240 C.3    64  TYR64       0.0560
    163  CG        14.8410    6.9350   37.5420 C.ar   64  TYR64      -0.0198
    164  CD1       15.8990    7.8410   37.6250 C.ar   64  TYR64      -0.0009
    165  CD2       15.1210    5.5820   37.7330 C.ar   64  TYR64      -0.0009
    166  CE1       17.1900    7.4140   37.9140 C.ar   64  TYR64       0.0417
    167  CE2       16.4060    5.1460   38.0190 C.ar   64  TYR64       0.0417
    168  CZ        17.4360    6.0680   38.1040 C.ar   64  TYR64       0.1957
    169  OH        18.7140    5.6420   38.3910 O.3    64  TYR64      -0.2866
    170  N         11.9570   13.0340   36.9020 N.3    67  ARG67      -0.1245
    171  CA        12.7150   13.4650   35.7260 C.3    67  ARG67       0.1563
    172  C         11.9180   13.2960   34.4220 C.2    67  ARG67       0.2260
    173  O         12.0080   14.1400   33.5210 O.2    67  ARG67      -0.2867
    174  CB        14.0860   12.7840   35.6430 C.3    67  ARG67       0.0307
    175  CG        15.0120   13.3800   34.5720 C.3    67  ARG67       0.0489
    176  CD        15.3680   14.8540   34.8460 C.3    67  ARG67       0.2205
    177  NE        16.1860   15.3990   33.7640 N.pl3  67  ARG67      -0.0865
    178  CZ        16.5680   16.6690   33.6450 C.cat  67  ARG67       0.5346
    179  NH1       16.2220   17.5820   34.5490 N.pl3  67  ARG67       0.1354
    180  NH2       17.3010   17.0280   32.6050 N.pl3  67  ARG67       0.1354
@<TRIPOS>BOND
     1    73    72    2
     2    72    71    1
     3    62    63    1
     4    65    64    2
     5    64    63    1
     6    64    70   am
     7    63    66    1
     8    71    70    1
     9    71    74    1
    10    74    75    1
    11    66    67    1
    12    68    67   ar
    13    58    57    2
    14    50    49    2
    15    57    56    1
    16    79    80    1
    17    67    69   ar
    18    49    48    1
    19    75    76    1
    20    55    56    1
    21    53    51    1
    22    76    77    1
    23    56    59    1
    24    86    88   ar
    25    86    84   ar
    26    88    89   ar
    27    80    83    1
    28    80    81    1
    29   180   178    1
    30    51    48    1
    31    51    52    1
    32    48    47    1
    33    83    84    1
    34    81    82    2
    35    84    85   ar
    36    47    44   am
    37    45    44    2
    38    59    60    1
    39    59    61    1
    40    42    43    1
    41    89    90    1
    42    89    87   ar
    43   173   172    2
    44    77    78    1
    45    44    43    1
    46   178   177    2
    47   178   179    1
    48   177   176    1
    49    85    87   ar
    50    52    54    1
    51    43    46    1
    52    34    33    2
    53   172   171    1
    54   175   176    1
    55   175   174    1
    56    33    32    1
    57    29    28    2
    58    26    27    1
    59   174   171    1
    60    28    27    1
    61    28    31   am
    62   171   170    1
    63    27    30    1
    64   161   160    2
    65    32    31    1
    66    32    35    1
    67    35    36    1
    68    36    37    1
    69   160   159    1
    70   162   163    1
    71   162   159    1
    72    37    38    1
    73   163   164   ar
    74   163   165   ar
    75   159   158    1
    76   164   166   ar
    77   165   167   ar
    78   166   168   ar
    79   167   168   ar
    80   168   169    1
    81    20    19    2
    82    91    92    1
    83    19    18    1
    84    40    39    1
    85    38    39    2
    86   152   151    2
    87    13    12    2
    88   158   151   am
    89    17    18    1
    90    39    41    1
    91    18    21    1
    92   151   150    1
    93    97    96    1
    94    12    11    1
    95    96    95    1
    96    96    98    1
    97    92    95    1
    98    92    93    1
    99    93    94    2
   100   144   143    2
   101    15    14    1
   102    21    22    1
   103     4     3    2
   104   150   153    1
   105   150   149    1
   106    11    14    1
   107    11    10    1
   108    14    16    1
   109   148   147    1
   110   143   142    1
   111   153   154    1
   112     3    10   am
   113     3     2    1
   114     1     2    1
   115    22    23    1
   116   145   142    1
   117   145   146    1
   118   157   155   ar
   119     2     5    1
   120   142   141    1
   121   146   147    1
   122   154   155    1
   123   155   156   ar
   124    24    23   ar
   125    23    25   ar
   126   123   122    2
   127     5     6    1
   128   141   134   am
   129   135   134    2
   130   126   128   ar
   131   126   125   ar
   132   128   130   ar
   133     6     7    1
   134   122   121    1
   135   134   133    1
   136   124   121    1
   137   124   125    1
   138   121   120    1
   139   125   127   ar
   140   130   131    1
   141   130   129   ar
   142   127   129   ar
   143   115   114    2
   144   120   114   am
   145     7     9   am
   146     7     8    2
   147   133   132    1
   148   133   136    1
   149   114   113    1
   150   118   116    1
   151   140   138   am
   152   137   136    1
   153   137   138    1
   154   111   109    1
   155   138   139    2
   156   116   113    1
   157   116   117    1
   158   113   112    1
   159   108   107    2
   160   109   110    1
   161   109   106    1
   162   117   119    1
   163   107   106    1
   164   106   105    1
   165   105   101   am
   166   101   102    2
   167   101   100    1
   168    99   100    1
   169   100   103    1
   170   104   103    1
