@<TRIPOS>MOLECULE
tmp/2w31B00.pdb
 189 181 0 0 0
SMALL
GASTEIGER

@<TRIPOS>ATOM
      1  N         21.3580   42.0140   13.6700 N.3    39  PHE39      -0.1241
      2  CA        21.9120   40.7400   14.1270 C.3    39  PHE39       0.1605
      3  C         20.8260   39.6560   14.1540 C.2    39  PHE39       0.2264
      4  O         20.9840   38.5560   13.5730 O.2    39  PHE39      -0.2867
      5  CB        22.5580   40.9470   15.5060 C.3    39  PHE39       0.0534
      6  CG        23.3360   39.7470   16.0240 C.ar   39  PHE39      -0.0203
      7  CD1       24.6510   39.5600   15.6600 C.ar   39  PHE39      -0.0042
      8  CD2       22.7460   38.8290   16.8960 C.ar   39  PHE39      -0.0042
      9  CE1       25.3570   38.4660   16.1590 C.ar   39  PHE39      -0.0003
     10  CE2       23.4330   37.7200   17.3680 C.ar   39  PHE39      -0.0003
     11  CZ        24.7450   37.5550   17.0120 C.ar   39  PHE39      -0.0000
     12  N         20.2530   36.1430   11.7140 N.3    43  LEU43      -0.1245
     13  CA        20.0690   34.7690   12.1840 C.3    43  LEU43       0.1561
     14  C         18.7390   34.1570   11.7250 C.2    43  LEU43       0.2260
     15  O         18.6690   32.9690   11.4320 O.2    43  LEU43      -0.2867
     16  CB        20.1400   34.7250   13.7130 C.3    43  LEU43       0.0270
     17  CG        21.4380   35.2420   14.3490 C.3    43  LEU43       0.0019
     18  CD1       21.4070   35.1470   15.8700 C.3    43  LEU43       0.0001
     19  CD2       22.6460   34.5000   13.7600 C.3    43  LEU43       0.0001
     20  N         20.2560   28.5680   11.7420 N.3    49  THR49      -0.1218
     21  CA        20.2750   29.3770   12.9720 C.3    49  THR49       0.1862
     22  C         18.8440   29.7320   13.3870 C.2    49  THR49       0.2287
     23  O         18.5430   29.8140   14.5840 O.2    49  THR49      -0.2866
     24  CB        21.1530   30.6320   12.8200 C.3    49  THR49       0.1770
     25  OG1       20.8360   31.3130   11.6010 O.3    49  THR49      -0.2211
     26  CG2       22.6250   30.2680   12.7970 C.3    49  THR49       0.0375
     27  N         17.1700   27.7340   16.1980 N.3    52  PHE52      -0.1227
     28  CA        17.4650   28.0550   17.6050 C.3    52  PHE52       0.1736
     29  C         16.6660   29.2070   18.1560 C.2    52  PHE52       0.2595
     30  O         16.7430   29.4730   19.3650 O.2    52  PHE52      -0.2718
     31  CB        18.9750   28.3390   17.8050 C.3    52  PHE52       0.0547
     32  CG        19.8290   27.1330   17.5660 C.ar   52  PHE52      -0.0202
     33  CD1       20.1150   26.2310   18.6150 C.ar   52  PHE52      -0.0042
     34  CD2       20.3200   26.8550   16.2930 C.ar   52  PHE52      -0.0042
     35  CE1       20.8370   25.0810   18.3640 C.ar   52  PHE52      -0.0003
     36  CE2       21.0940   25.6900   16.0410 C.ar   52  PHE52      -0.0003
     37  CZ        21.3780   24.8240   17.0920 C.ar   52  PHE52      -0.0000
     38  N         15.8690   29.8770   17.2990 N.am   53  LEU53      -0.1980
     39  CA        15.1070   31.0510   17.7130 C.3    53  LEU53       0.1596
     40  C         13.6240   30.6800   17.8170 C.2    53  LEU53       0.2287
     41  O         12.7890   31.5330   18.1320 O.2    53  LEU53      -0.2864
     42  CB        15.3530   32.2070   16.7360 C.3    53  LEU53       0.0297
     43  CG        16.8240   32.6850   16.6270 C.3    53  LEU53       0.0022
     44  CD1       16.9630   33.8320   15.6030 C.3    53  LEU53       0.0001
     45  CD2       17.4000   33.1130   17.9650 C.3    53  LEU53       0.0001
     46  N         16.0760   36.7700   23.4530 N.3    62  LEU62      -0.1245
     47  CA        17.4590   36.6020   22.9390 C.3    62  LEU62       0.1561
     48  C         17.9510   37.8060   22.1360 C.2    62  LEU62       0.2260
     49  O         19.1590   38.0750   22.1030 O.2    62  LEU62      -0.2867
     50  CB        17.6080   35.3180   22.1210 C.3    62  LEU62       0.0270
     51  CG        17.5650   34.0750   23.0020 C.3    62  LEU62       0.0019
     52  CD1       17.5070   32.8460   22.1420 C.3    62  LEU62       0.0001
     53  CD2       18.7950   34.0300   23.8910 C.3    62  LEU62       0.0001
     54  N         19.4400   39.8410   24.8230 N.3    65  THR65      -0.1203
     55  CA        20.6350   39.2150   25.3450 C.3    65  THR65       0.1994
     56  C         21.8240   39.5420   24.4480 C.2    65  THR65       0.2617
     57  O         22.8790   39.8930   24.9430 O.2    65  THR65      -0.2717
     58  CB        20.4090   37.7070   25.4240 C.3    65  THR65       0.1784
     59  OG1       19.3360   37.4840   26.3610 O.3    65  THR65      -0.2211
     60  CG2       21.6900   36.9710   25.8480 C.3    65  THR65       0.0376
     61  N         21.6510   39.4290   23.1370 N.am   66  HIS66      -0.1975
     62  CA        22.7360   39.7200   22.1910 C.3    66  HIS66       0.1656
     63  C         23.0450   41.2220   22.1360 C.2    66  HIS66       0.2291
     64  O         24.2060   41.6010   22.0370 O.2    66  HIS66      -0.2864
     65  CB        22.4310   39.1560   20.7910 C.3    66  HIS66       0.0771
     66  CG        22.6090   37.6640   20.6800 C.ar   66  HIS66       0.0820
     67  ND1       21.8520   36.8800   19.8330 N.ar   66  HIS66      -0.2267
     68  CD2       23.4730   36.8180   21.2930 C.ar   66  HIS66       0.1154
     69  CE1       22.2380   35.6170   19.9330 C.ar   66  HIS66       0.1986
     70  NE2       23.2180   35.5480   20.8170 N.ar   66  HIS66      -0.2212
     71  N         25.2240   42.0650   25.1510 N.3    69  TRP69      -0.1241
     72  CA        26.6180   41.6610   24.9350 C.3    69  TRP69       0.1605
     73  C         27.3670   42.7380   24.1070 C.2    69  TRP69       0.2264
     74  O         28.5030   43.0910   24.3810 O.2    69  TRP69      -0.2867
     75  CB        26.6580   40.2910   24.1990 C.3    69  TRP69       0.0550
     76  CG        28.0430   40.0280   23.6530 C.ar   69  TRP69       0.0003
     77  CD1       29.1630   39.5730   24.3380 C.ar   69  TRP69       0.0946
     78  CD2       28.4720   40.3090   22.3230 C.ar   69  TRP69       0.0152
     79  NE1       30.2690   39.5700   23.4920 N.ar   69  TRP69      -0.2442
     80  CE2       29.8600   40.0350   22.2460 C.ar   69  TRP69       0.0810
     81  CE3       27.7910   40.7430   21.1710 C.ar   69  TRP69       0.0012
     82  CZ2       30.5700   40.1320   21.0240 C.ar   69  TRP69       0.0191
     83  CZ3       28.4950   40.9020   19.9950 C.ar   69  TRP69       0.0001
     84  CH2       29.8770   40.5860   19.9200 C.ar   69  TRP69       0.0015
     85  N         31.7050   31.2730   29.7170 N.3    88  LYS88      -0.1231
     86  CA        30.2870   31.0250   29.9650 C.3    88  LYS88       0.1693
     87  C         29.4720   31.2750   28.7050 C.2    88  LYS88       0.2591
     88  O         28.6190   30.4710   28.3510 O.2    88  LYS88      -0.2718
     89  CB        29.8140   31.9590   31.0720 C.3    88  LYS88       0.0285
     90  CG        28.2950   31.9020   31.4130 C.3    88  LYS88       0.0035
     91  CD        27.8860   32.8190   32.6050 C.3    88  LYS88       0.0206
     92  CE        26.4030   32.6360   32.9730 C.3    88  LYS88       0.1093
     93  NZ        25.5340   33.7680   32.5060 N.3    88  LYS88      -0.1314
     94  N         29.8230   32.3410   27.9800 N.am   89  ILE89      -0.1980
     95  CA        29.0630   32.6500   26.7490 C.3    89  ILE89       0.1595
     96  C         29.2890   31.5530   25.7010 C.2    89  ILE89       0.2287
     97  O         28.3410   31.0620   25.0860 O.2    89  ILE89      -0.2864
     98  CB        29.4490   34.0590   26.2180 C.3    89  ILE89       0.0276
     99  CG1       29.0150   35.1390   27.2140 C.3    89  ILE89       0.0022
    100  CG2       28.9030   34.2830   24.8090 C.3    89  ILE89       0.0022
    101  CD1       29.5530   36.5520   26.8570 C.3    89  ILE89       0.0001
    102  N         27.3730   28.4170   26.5760 N.3    92  ALA92      -0.1231
    103  CA        25.9250   28.4750   26.3660 C.3    92  ALA92       0.1694
    104  C         25.5550   28.0130   24.9420 C.2    92  ALA92       0.2592
    105  O         24.5130   27.3870   24.7320 O.2    92  ALA92      -0.2718
    106  CB        25.4470   29.8920   26.6210 C.3    92  ALA92       0.0304
    107  N         26.3990   28.3320   23.9590 N.am   93  HIS93      -0.1976
    108  CA        26.1420   27.9100   22.5690 C.3    93  HIS93       0.1656
    109  C         26.4670   26.4380   22.3780 C.2    93  HIS93       0.2291
    110  O         25.7660   25.7470   21.6370 O.2    93  HIS93      -0.2864
    111  CB        26.9010   28.8170   21.5850 C.3    93  HIS93       0.0771
    112  CG        26.4920   30.2420   21.7150 C.ar   93  HIS93       0.0820
    113  ND1       27.0650   31.0860   22.6390 N.ar   93  HIS93      -0.2267
    114  CD2       25.4770   30.9350   21.1450 C.ar   93  HIS93       0.1154
    115  CE1       26.4850   32.2760   22.5560 C.ar   93  HIS93       0.1986
    116  NE2       25.4940   32.1940   21.6870 N.ar   93  HIS93      -0.2212
    117  N         26.1440   24.1340   24.7200 N.3    95  ARG95      -0.1231
    118  CA        25.0860   23.3300   25.3280 C.3    95  ARG95       0.1694
    119  C         23.7580   23.3070   24.5770 C.2    95  ARG95       0.2591
    120  O         23.0940   22.2800   24.6010 O.2    95  ARG95      -0.2718
    121  CB        24.8850   23.6880   26.7660 C.3    95  ARG95       0.0321
    122  CG        24.3650   25.0150   26.9310 C.3    95  ARG95       0.0489
    123  CD        23.1670   24.9760   27.8190 C.3    95  ARG95       0.2205
    124  NE        23.1220   26.1330   28.7020 N.pl3  95  ARG95      -0.0865
    125  CZ        22.9530   27.3960   28.3170 C.cat  95  ARG95       0.5346
    126  NH1       22.8110   27.7090   27.0350 N.pl3  95  ARG95       0.1354
    127  NH2       22.9330   28.3490   29.2330 N.pl3  95  ARG95       0.1354
    128  N         23.3720   24.3910   23.8980 N.am   96  VAL96      -0.1980
    129  CA        22.1550   24.3380   23.0600 C.3    96  VAL96       0.1595
    130  C         22.3490   23.5720   21.7430 C.2    96  VAL96       0.2287
    131  O         21.3740   23.2670   21.0400 O.2    96  VAL96      -0.2864
    132  CB        21.5770   25.7440   22.7680 C.3    96  VAL96       0.0276
    133  CG1       21.1550   26.4250   24.0750 C.3    96  VAL96       0.0022
    134  CG2       22.5360   26.6230   21.8760 C.3    96  VAL96       0.0022
    135  N         24.5590   24.5760   19.0430 N.3    98  LEU98      -0.1245
    136  CA        24.8800   25.3890   17.8510 C.3    98  LEU98       0.1561
    137  C         26.2820   25.0380   17.3010 C.2    98  LEU98       0.2260
    138  O         27.2320   25.0520   18.0440 O.2    98  LEU98      -0.2867
    139  CB        24.8470   26.8790   18.2420 C.3    98  LEU98       0.0270
    140  CG        25.1120   27.9030   17.1320 C.3    98  LEU98       0.0019
    141  CD1       24.0480   27.9490   16.1110 C.3    98  LEU98       0.0001
    142  CD2       25.3450   29.2830   17.7360 C.3    98  LEU98       0.0001
    143  N         28.6220   28.9130   13.0480 N.3   102  TYR102     -0.1227
    144  CA        27.6930   30.0540   13.1060 C.3   102  TYR102      0.1736
    145  C         28.1220   31.1720   14.0640 C.2   102  TYR102      0.2595
    146  O         27.7570   32.3490   13.8400 O.2   102  TYR102     -0.2718
    147  CB        26.2540   29.6120   13.3780 C.3   102  TYR102      0.0548
    148  CG        25.7670   28.6990   12.2710 C.ar  102  TYR102     -0.0200
    149  CD1       25.4400   29.2170   11.0050 C.ar  102  TYR102     -0.0009
    150  CD2       25.7050   27.3080   12.4640 C.ar  102  TYR102     -0.0009
    151  CE1       25.0560   28.3670    9.9460 C.ar  102  TYR102      0.0417
    152  CE2       25.2950   26.4520   11.4010 C.ar  102  TYR102      0.0417
    153  CZ        24.9840   26.9870   10.1640 C.ar  102  TYR102      0.1957
    154  OH        24.6160   26.1660    9.0970 O.3   102  TYR102     -0.2866
    155  N         28.9260   30.8370   15.0740 N.am  103  VAL103     -0.1980
    156  CA        29.5430   31.8920   15.9060 C.3   103  VAL103      0.1595
    157  C         30.5420   32.7090   15.0400 C.2   103  VAL103      0.2287
    158  O         30.5570   33.9460   15.1300 O.2   103  VAL103     -0.2864
    159  CB        30.2360   31.2730   17.1360 C.3   103  VAL103      0.0276
    160  CG1       30.9750   32.3400   17.9750 C.3   103  VAL103      0.0022
    161  CG2       29.1840   30.5520   17.9940 C.3   103  VAL103      0.0022
    162  N         28.3410   34.9580   12.7920 N.3   106  ALA106     -0.1231
    163  CA        27.7450   36.0810   13.5460 C.3   106  ALA106      0.1694
    164  C         28.8190   37.1160   13.9070 C.2   106  ALA106      0.2591
    165  O         28.5480   38.3510   13.8700 O.2   106  ALA106     -0.2718
    166  CB        27.0420   35.5670   14.8050 C.3   106  ALA106      0.0304
    167  N         30.0440   36.6730   14.2350 N.am  107  MET107     -0.1979
    168  CA        31.0500   37.6740   14.5960 C.3   107  MET107      0.1605
    169  C         31.3980   38.5320   13.3470 C.2   107  MET107      0.2287
    170  O         31.6530   39.7360   13.4780 O.2   107  MET107     -0.2864
    171  CB        32.3150   37.0420   15.1840 C.3   107  MET107      0.0413
    172  CG        33.2180   38.0700   15.8690 C.3   107  MET107      0.0598
    173  SD        32.4510   38.8410   17.3260 S.3   107  MET107     -0.1393
    174  CE        32.5190   37.5250   18.5130 C.3   107  MET107      0.0692
    175  N         28.7900   41.3040   13.2370 N.3   110  VAL110     -0.1245
    176  CA        29.0460   42.3620   14.2250 C.3   110  VAL110      0.1561
    177  C         30.2670   43.2000   13.8310 C.2   110  VAL110      0.2260
    178  O         30.2830   44.4410   14.0060 O.2   110  VAL110     -0.2867
    179  CB        29.2870   41.7470   15.6300 C.3   110  VAL110      0.0252
    180  CG1       29.7160   42.8180   16.6290 C.3   110  VAL110      0.0019
    181  CG2       28.0430   40.9790   16.0590 C.3   110  VAL110      0.0019
    182  N         35.3590   32.1330   22.8050 N.3   146  MET146     -0.1245
    183  CA        34.1460   31.3860   22.5020 C.3   146  MET146      0.1570
    184  C         34.4510   30.1010   21.7120 C.2   146  MET146      0.2261
    185  O         33.8460   29.0320   21.9700 O.2   146  MET146     -0.2867
    186  CB        33.1420   32.2220   21.7140 C.3   146  MET146      0.0387
    187  CG        32.4860   33.3090   22.5710 C.3   146  MET146      0.0595
    188  SD        31.2870   34.2910   21.6690 S.3   146  MET146     -0.1393
    189  CE        29.9220   33.1370   21.3780 C.3   146  MET146      0.0692
@<TRIPOS>BOND
     1   154   153    1
     2   151   153   ar
     3   151   149   ar
     4   153   152   ar
     5   149   148   ar
     6   152   150   ar
     7    15    14    2
     8    25    24    1
     9    12    13    1
    10    14    13    1
    11    20    21    1
    12    13    16    1
    13   148   150   ar
    14   148   147    1
    15   162   163    1
    16    26    24    1
    17    24    21    1
    18    21    22    1
    19   143   144    1
    20   144   147    1
    21   144   145    1
    22   175   176    1
    23   169   170    2
    24   169   168    1
    25    22    23    2
    26   163   164    1
    27   163   166    1
    28     4     3    2
    29     1     2    1
    30    16    17    1
    31    19    17    1
    32   177   178    2
    33   177   176    1
    34   146   145    2
    35   165   164    2
    36   164   167   am
    37   145   155   am
    38     2     3    1
    39     2     5    1
    40   176   179    1
    41   167   168    1
    42    17    18    1
    43   168   171    1
    44   157   158    2
    45   157   156    1
    46   155   156    1
    47   171   172    1
    48     5     6    1
    49    44    43    1
    50   179   181    1
    51   179   180    1
    52     7     6   ar
    53     7     9   ar
    54   172   173    1
    55   156   159    1
    56     6     8   ar
    57    36    34   ar
    58    36    37   ar
    59   141   140    1
    60     9    11   ar
    61    27    28    1
    62    34    32   ar
    63    43    42    1
    64    43    45    1
    65    42    39    1
    66     8    10   ar
    67    11    10   ar
    68    37    35   ar
    69   140   142    1
    70   140   139    1
    71   159   160    1
    72   159   161    1
    73    38    39    1
    74    38    29   am
    75   137   136    1
    76   137   138    2
    77   173   174    1
    78    32    31    1
    79    32    33   ar
    80    28    31    1
    81    28    29    1
    82    39    40    1
    83    40    41    2
    84   136   139    1
    85   136   135    1
    86    29    30    2
    87    35    33   ar
    88    67    69   ar
    89    67    66   ar
    90    84    83   ar
    91    84    82   ar
    92    69    70   ar
    93    83    81   ar
    94    66    65    1
    95    66    68   ar
    96    65    62    1
    97    70    68   ar
    98    82    80   ar
    99   131   130    2
   100   114   116   ar
   101   114   112   ar
   102    81    78   ar
   103   189   188    1
   104   111   112    1
   105   111   108    1
   106   110   109    2
   107   188   187    1
   108   116   115   ar
   109   184   185    2
   110   184   183    1
   111   186   183    1
   112   186   187    1
   113   112   113   ar
   114   130   129    1
   115   134   132    1
   116    64    63    2
   117    49    48    2
   118    50    47    1
   119    50    51    1
   120    48    47    1
   121    63    62    1
   122    52    51    1
   123    62    61    1
   124    80    78   ar
   125    80    79   ar
   126    78    76   ar
   127   109   108    1
   128   183   182    1
   129   115   113   ar
   130   108   107    1
   131   132   129    1
   132   132   133    1
   133    47    46    1
   134    51    53    1
   135   129   128    1
   136    61    56   am
   137    79    77   ar
   138    76    75    1
   139    76    77   ar
   140   128   119   am
   141   107   104   am
   142    73    74    2
   143    73    72    1
   144    75    72    1
   145    56    57    2
   146    56    55    1
   147   119   120    2
   148   119   118    1
   149   117   118    1
   150   105   104    2
   151   100    98    1
   152    54    55    1
   153    72    71    1
   154   104   103    1
   155    97    96    2
   156   118   121    1
   157    55    58    1
   158    58    60    1
   159    58    59    1
   160    96    95    1
   161    98    95    1
   162    98    99    1
   163   103   102    1
   164   103   106    1
   165    95    94    1
   166   121   122    1
   167   101    99    1
   168   122   123    1
   169   126   125    1
   170   123   124    1
   171    94    87   am
   172   125   124    2
   173   125   127    1
   174    88    87    2
   175    87    86    1
   176    85    86    1
   177    86    89    1
   178    89    90    1
   179    90    91    1
   180    93    92    1
   181    91    92    1
