@<TRIPOS>MOLECULE
tmp/2w31A00.pdb
 169 161 0 0 0
SMALL
GASTEIGER

@<TRIPOS>ATOM
      1  N         54.5350   39.7380   10.2880 N.3    39  PHE39      -0.1241
      2  CA        53.9250   38.5090   10.7720 C.3    39  PHE39       0.1605
      3  C         54.9440   37.6520   11.5150 C.2    39  PHE39       0.2264
      4  O         54.7210   37.2580   12.6830 O.2    39  PHE39      -0.2867
      5  CB        53.3040   37.7640    9.5570 C.3    39  PHE39       0.0534
      6  CG        52.5730   36.5050    9.8950 C.ar   39  PHE39      -0.0203
      7  CD1       51.1990   36.5340   10.1250 C.ar   39  PHE39      -0.0042
      8  CD2       53.2250   35.2700    9.9000 C.ar   39  PHE39      -0.0042
      9  CE1       50.5040   35.3510   10.3780 C.ar   39  PHE39      -0.0003
     10  CE2       52.5300   34.0800   10.1480 C.ar   39  PHE39      -0.0003
     11  CZ        51.1500   34.1330   10.3880 C.ar   39  PHE39      -0.0000
     12  N         55.4380   36.8540   15.7880 N.3    43  LEU43      -0.1245
     13  CA        55.4890   35.5030   16.3560 C.3    43  LEU43       0.1561
     14  C         56.7550   35.2530   17.1740 C.2    43  LEU43       0.2260
     15  O         56.7100   34.5690   18.2220 O.2    43  LEU43      -0.2867
     16  CB        55.3340   34.4490   15.2560 C.3    43  LEU43       0.0270
     17  CG        53.9860   34.4320   14.5030 C.3    43  LEU43       0.0019
     18  CD1       53.9630   33.2950   13.4740 C.3    43  LEU43       0.0001
     19  CD2       52.8090   34.3340   15.4550 C.3    43  LEU43       0.0001
     20  N         54.9760   30.7260   20.4100 N.3    49  THR49      -0.1218
     21  CA        55.0590   30.6080   18.9550 C.3    49  THR49       0.1862
     22  C         56.5360   30.6880   18.5120 C.2    49  THR49       0.2287
     23  O         56.8930   30.0710   17.5210 O.2    49  THR49      -0.2866
     24  CB        54.2430   31.6860   18.2440 C.3    49  THR49       0.1770
     25  OG1       54.5310   32.9760   18.8190 O.3    49  THR49      -0.2211
     26  CG2       52.7700   31.3790   18.3970 C.3    49  THR49       0.0375
     27  N         58.3550   27.4190   17.6080 N.3    52  PHE52      -0.1227
     28  CA        58.1430   26.7340   16.3440 C.3    52  PHE52       0.1736
     29  C         59.0020   27.2780   15.2560 C.2    52  PHE52       0.2595
     30  O         59.0600   26.6840   14.1890 O.2    52  PHE52      -0.2718
     31  CB        56.6660   26.8510   15.8710 C.3    52  PHE52       0.0547
     32  CG        55.7100   26.0790   16.7180 C.ar   52  PHE52      -0.0202
     33  CD1       55.4030   24.7420   16.4020 C.ar   52  PHE52      -0.0042
     34  CD2       55.1670   26.6440   17.8630 C.ar   52  PHE52      -0.0042
     35  CE1       54.5330   24.0090   17.2080 C.ar   52  PHE52      -0.0003
     36  CE2       54.2800   25.9070   18.6880 C.ar   52  PHE52      -0.0003
     37  CZ        53.9880   24.5770   18.3580 C.ar   52  PHE52      -0.0000
     38  N         59.6490   28.4160   15.5090 N.am   53  LEU53      -0.1980
     39  CA        60.4870   29.0770   14.5090 C.3    53  LEU53       0.1596
     40  C         61.9850   28.8720   14.7260 C.2    53  LEU53       0.2287
     41  O         62.7940   29.4650   13.9750 O.2    53  LEU53      -0.2864
     42  CB        60.1670   30.5610   14.4720 C.3    53  LEU53       0.0297
     43  CG        58.6980   30.8440   14.0950 C.3    53  LEU53       0.0022
     44  CD1       58.5180   32.3240   14.0790 C.3    53  LEU53       0.0001
     45  CD2       58.3270   30.2170   12.7360 C.3    53  LEU53       0.0001
     46  N         59.5500   29.0070    6.5410 N.3    62  LEU62      -0.1245
     47  CA        58.2120   29.3540    7.0590 C.3    62  LEU62       0.1561
     48  C         57.7500   30.7860    6.7760 C.2    62  LEU62       0.2260
     49  O         56.5470   31.0010    6.6120 O.2    62  LEU62      -0.2867
     50  CB        58.0710   29.0170    8.5490 C.3    62  LEU62       0.0270
     51  CG        58.0550   27.5180    8.8870 C.3    62  LEU62       0.0019
     52  CD1       58.0830   27.2980   10.3820 C.3    62  LEU62       0.0001
     53  CD2       56.8330   26.7780    8.2550 C.3    62  LEU62       0.0001
     54  N         56.3620   30.4430    3.3370 N.3    65  THR65      -0.1203
     55  CA        55.1200   29.6720    3.3590 C.3    65  THR65       0.1994
     56  C         53.8990   30.5250    3.7680 C.2    65  THR65       0.2617
     57  O         52.8280   30.4580    3.1340 O.2    65  THR65      -0.2717
     58  CB        55.2680   28.4810    4.3160 C.3    65  THR65       0.1784
     59  OG1       56.2100   27.5650    3.7550 O.3    65  THR65      -0.2211
     60  CG2       53.9560   27.7570    4.5060 C.3    65  THR65       0.0376
     61  N         54.0710   31.3380    4.8010 N.am   66  HIS66      -0.1975
     62  CA        52.9580   32.1840    5.2570 C.3    66  HIS66       0.1656
     63  C         52.7670   33.3950    4.3240 C.2    66  HIS66       0.2291
     64  O         51.6100   33.8350    4.0960 O.2    66  HIS66      -0.2864
     65  CB        53.1670   32.5590    6.7130 C.3    66  HIS66       0.0771
     66  CG        53.0730   31.3780    7.6200 C.ar   66  HIS66       0.0820
     67  ND1       54.1380   30.5450    7.8760 N.ar   66  HIS66      -0.2267
     68  CD2       52.0150   30.8510    8.2800 C.ar   66  HIS66       0.1154
     69  CE1       53.7370   29.5620    8.6620 C.ar   66  HIS66       0.1986
     70  NE2       52.4630   29.7550    8.9610 N.ar   66  HIS66      -0.2212
     71  N         50.5720   32.1070    1.4730 N.3    69  TRP69      -0.1241
     72  CA        49.1690   32.0100    1.8970 C.3    69  TRP69       0.1605
     73  C         48.4730   33.4000    1.8290 C.2    69  TRP69       0.2264
     74  O         47.3210   33.5260    1.3390 O.2    69  TRP69      -0.2867
     75  CB        49.0530   31.4160    3.3240 C.3    69  TRP69       0.0550
     76  CG        47.6470   31.6740    3.8990 C.ar   69  TRP69       0.0003
     77  CD1       46.5130   30.9470    3.6840 C.ar   69  TRP69       0.0946
     78  CD2       47.2600   32.8030    4.7180 C.ar   69  TRP69       0.0152
     79  NE1       45.4150   31.5690    4.3190 N.ar   69  TRP69      -0.2442
     80  CE2       45.8720   32.6910    4.9700 C.ar   69  TRP69       0.0810
     81  CE3       47.9740   33.8910    5.2770 C.ar   69  TRP69       0.0012
     82  CZ2       45.1810   33.6310    5.7640 C.ar   69  TRP69       0.0191
     83  CZ3       47.2950   34.8130    6.0620 C.ar   69  TRP69       0.0001
     84  CH2       45.9000   34.6680    6.2890 C.ar   69  TRP69       0.0015
     85  N         45.5650   23.0340    5.7140 N.3    89  ILE89      -0.1245
     86  CA        46.3740   24.0220    6.4290 C.3    89  ILE89       0.1561
     87  C         46.0520   23.9210    7.9220 C.2    89  ILE89       0.2260
     88  O         46.9310   23.8860    8.7620 O.2    89  ILE89      -0.2867
     89  CB        46.1480   25.4700    5.8790 C.3    89  ILE89       0.0252
     90  CG1       46.6480   25.5750    4.4270 C.3    89  ILE89       0.0019
     91  CG2       46.8830   26.4860    6.7380 C.3    89  ILE89       0.0019
     92  CD1       46.0430   26.7420    3.6150 C.3    89  ILE89       0.0001
     93  N         47.6630   20.8460    9.5270 N.3    92  ALA92      -0.1231
     94  CA        49.1230   20.9590    9.6500 C.3    92  ALA92       0.1694
     95  C         49.4890   21.5630   11.0090 C.2    92  ALA92       0.2592
     96  O         50.4430   21.1170   11.6580 O.2    92  ALA92      -0.2718
     97  CB        49.6790   21.8110    8.5260 C.3    92  ALA92       0.0304
     98  N         48.7040   22.5580   11.4520 N.am   93  HIS93      -0.1976
     99  CA        48.9690   23.2080   12.7220 C.3    93  HIS93       0.1656
    100  C         48.5810   22.3080   13.9170 C.2    93  HIS93       0.2291
    101  O         49.2830   22.3030   14.9260 O.2    93  HIS93      -0.2864
    102  CB        48.3300   24.6320   12.7710 C.3    93  HIS93       0.0771
    103  CG        48.8820   25.5830   11.7360 C.ar   93  HIS93       0.0820
    104  ND1       48.3670   25.6550   10.4600 N.ar   93  HIS93      -0.2267
    105  CD2       49.8890   26.4980   11.7860 C.ar   93  HIS93       0.1154
    106  CE1       49.0400   26.5490    9.7570 C.ar   93  HIS93       0.1986
    107  NE2       49.9620   27.0970   10.5360 N.ar   93  HIS93      -0.2212
    108  N         51.4890   19.6900   14.3280 N.3    96  VAL96      -0.1245
    109  CA        52.7490   20.1440   14.9670 C.3    96  VAL96       0.1561
    110  C         52.6020   20.6040   16.4310 C.2    96  VAL96       0.2260
    111  O         53.6010   20.9230   17.0930 O.2    96  VAL96      -0.2867
    112  CB        53.4770   21.2380   14.1580 C.3    96  VAL96       0.0252
    113  CG1       53.7970   20.7210   12.7710 C.3    96  VAL96       0.0019
    114  CG2       52.6620   22.5630   14.1200 C.3    96  VAL96       0.0019
    115  N         50.5780   23.1820   17.6180 N.3    98  LEU98      -0.1245
    116  CA        50.2650   24.5950   17.8360 C.3    98  LEU98       0.1561
    117  C         48.8310   24.7650   18.4320 C.2    98  LEU98       0.2260
    118  O         47.8390   24.2540   17.8820 O.2    98  LEU98      -0.2867
    119  CB        50.3830   25.3410   16.5110 C.3    98  LEU98       0.0270
    120  CG        50.1670   26.8570   16.5940 C.3    98  LEU98       0.0019
    121  CD1       51.2790   27.5410   17.3900 C.3    98  LEU98       0.0001
    122  CD2       50.0190   27.4380   15.1760 C.3    98  LEU98       0.0001
    123  N         46.6980   30.5760   18.9610 N.3   102  TYR102     -0.1227
    124  CA        47.7150   31.3420   18.2180 C.3   102  TYR102      0.1736
    125  C         47.3250   31.5560   16.7610 C.2   102  TYR102      0.2595
    126  O         47.7710   32.5370   16.1490 O.2   102  TYR102     -0.2718
    127  CB        49.1030   30.7040   18.3550 C.3   102  TYR102      0.0548
    128  CG        49.5410   30.7330   19.8040 C.ar  102  TYR102     -0.0200
    129  CD1       49.8560   31.9550   20.4400 C.ar  102  TYR102     -0.0009
    130  CD2       49.5670   29.5560   20.5690 C.ar  102  TYR102     -0.0009
    131  CE1       50.2200   32.0050   21.7810 C.ar  102  TYR102      0.0417
    132  CE2       49.9270   29.5940   21.9390 C.ar  102  TYR102      0.0417
    133  CZ        50.2460   30.8270   22.5340 C.ar  102  TYR102      0.1957
    134  OH        50.6090   30.8990   23.8920 O.3   102  TYR102     -0.2866
    135  N         46.4500   30.6900   16.2260 N.am  103  VAL103     -0.1980
    136  CA        45.8700   30.9160   14.8920 C.3   103  VAL103      0.1595
    137  C         44.9710   32.1650   14.9500 C.2   103  VAL103      0.2287
    138  O         45.0450   33.0540   14.0740 O.2   103  VAL103     -0.2864
    139  CB        45.1220   29.6500   14.3230 C.3   103  VAL103      0.0276
    140  CG1       44.4160   29.9620   12.9890 C.3   103  VAL103      0.0022
    141  CG2       46.1210   28.5010   14.1000 C.3   103  VAL103      0.0022
    142  N         47.3150   35.1600   15.2380 N.3   106  ALA106     -0.1231
    143  CA        47.9890   35.4600   13.9800 C.3   106  ALA106      0.1694
    144  C         47.0430   36.1440   12.9980 C.2   106  ALA106      0.2591
    145  O         47.4560   37.0050   12.2210 O.2   106  ALA106     -0.2718
    146  CB        48.5630   34.1910   13.3700 C.3   106  ALA106      0.0304
    147  N         45.7730   35.7550   13.0390 N.am  107  MET107     -0.1979
    148  CA        44.7890   36.2500   12.0840 C.3   107  MET107      0.1605
    149  C         44.4200   37.7010   12.3730 C.2   107  MET107      0.2287
    150  O         44.0650   38.4540   11.4660 O.2   107  MET107     -0.2864
    151  CB        43.5350   35.3740   12.1040 C.3   107  MET107      0.0413
    152  CG        42.5680   35.6470   10.9630 C.3   107  MET107      0.0598
    153  SD        43.3090   35.3720    9.3430 S.3   107  MET107     -0.1393
    154  CE        43.1100   33.6000    9.1760 C.3   107  MET107      0.0692
    155  N         47.2240   39.7450   10.6370 N.3   110  VAL110     -0.1245
    156  CA        46.9560   39.9000    9.2000 C.3   110  VAL110      0.1561
    157  C         45.8150   40.9040    8.9660 C.2   110  VAL110      0.2260
    158  O         45.8530   41.7420    8.0450 O.2   110  VAL110     -0.2867
    159  CB        46.6380   38.5250    8.5800 C.3   110  VAL110      0.0252
    160  CG1       46.2860   38.6210    7.1110 C.3   110  VAL110      0.0019
    161  CG2       47.8160   37.5660    8.7990 C.3   110  VAL110      0.0019
    162  N         39.8480   26.8860    9.3550 N.3   146  MET146     -0.1245
    163  CA        41.0120   26.4480   10.1380 C.3   146  MET146      0.1570
    164  C         40.6080   26.0430   11.5570 C.2   146  MET146      0.2261
    165  O         41.1200   25.0270   12.1010 O.2   146  MET146     -0.2867
    166  CB        42.1020   27.5250   10.1690 C.3   146  MET146      0.0387
    167  CG        42.8240   27.7200    8.8320 C.3   146  MET146      0.0595
    168  SD        44.1800   28.8850    8.9270 S.3   146  MET146     -0.1393
    169  CE        45.4280   28.0190    9.8920 C.3   146  MET146      0.0692
@<TRIPOS>BOND
     1    74    73    2
     2    71    72    1
     3    73    72    1
     4    72    75    1
     5    57    56    2
     6    75    76    1
     7    54    55    1
     8    55    56    1
     9    55    58    1
    10    92    90    1
    11    77    76   ar
    12    77    79   ar
    13    59    58    1
    14    56    61   am
    15    76    78   ar
    16    64    63    2
    17    58    60    1
    18    79    80   ar
    19    63    62    1
    20    90    89    1
    21    78    80   ar
    22    78    81   ar
    23    61    62    1
    24    80    82   ar
    25    62    65    1
    26    81    83   ar
    27    85    86    1
    28    82    84   ar
    29    89    86    1
    30    89    91    1
    31    83    84   ar
    32    86    87    1
    33    46    47    1
    34    49    48    2
    35    65    66    1
    36    48    47    1
    37    47    50    1
    38   160   159    1
    39    66    67   ar
    40    66    68   ar
    41    67    69   ar
    42    87    88    2
    43   158   157    2
    44    53    51    1
    45    68    70   ar
    46    97    94    1
    47    50    51    1
    48   159   161    1
    49   159   156    1
    50    69    70   ar
    51   167   168    1
    52   167   166    1
    53    51    52    1
    54   168   169    1
    55   157   156    1
    56   154   153    1
    57   156   155    1
    58   153   152    1
    59   162   163    1
    60    93    94    1
    61     5     6    1
    62     5     2    1
    63    94    95    1
    64   106   104   ar
    65   106   107   ar
    66     6     8   ar
    67     6     7   ar
    68     8    10   ar
    69     7     9   ar
    70   163   166    1
    71   163   164    1
    72    10    11   ar
    73     1     2    1
    74     9    11   ar
    75   104   103   ar
    76   107   105   ar
    77     2     3    1
    78   152   151    1
    79    95    98   am
    80    95    96    2
    81    98    99    1
    82   150   149    2
    83     3     4    2
    84   164   165    2
    85   103   105   ar
    86   103   102    1
    87   148   151    1
    88   148   149    1
    89   148   147    1
    90   145   144    2
    91    99   102    1
    92    99   100    1
    93    45    43    1
    94   113   112    1
    95   140   139    1
    96   144   147   am
    97   144   143    1
    98   146   143    1
    99    18    17    1
   100   100   101    2
   101    41    40    2
   102   143   142    1
   103   138   137    2
   104    44    43    1
   105    43    42    1
   106   141   139    1
   107   114   112    1
   108   112   109    1
   109    30    29    2
   110   139   136    1
   111   108   109    1
   112    42    39    1
   113    17    16    1
   114    17    19    1
   115    39    40    1
   116    39    38    1
   117   136   137    1
   118   136   135    1
   119   109   110    1
   120   122   120    1
   121    29    38   am
   122    29    28    1
   123    16    13    1
   124    12    13    1
   125    31    28    1
   126    31    32    1
   127   126   125    2
   128   135   125   am
   129    28    27    1
   130    13    14    1
   131    33    32   ar
   132    33    35   ar
   133   110   111    2
   134   119   120    1
   135   119   116    1
   136   120   121    1
   137    32    34   ar
   138   125   124    1
   139    14    15    2
   140    35    37   ar
   141    23    22    2
   142   115   116    1
   143   116   117    1
   144    34    36   ar
   145   118   117    2
   146   124   127    1
   147   124   123    1
   148    24    26    1
   149    24    25    1
   150    24    21    1
   151   127   128    1
   152    37    36   ar
   153    22    21    1
   154    21    20    1
   155   128   129   ar
   156   128   130   ar
   157   129   131   ar
   158   130   132   ar
   159   131   133   ar
   160   132   133   ar
   161   133   134    1
